<?xml version="1.0" encoding="UTF-8"?>

<!-- generated on Mon Jan  6 21:34:09 2020 by Eclipse SUMO netconvert Version 1.3.1
<configuration xmlns:xsi="http://www.w3.org/2001/XMLSchema-instance" xsi:noNamespaceSchemaLocation="http://sumo.dlr.de/xsd/netconvertConfiguration.xsd">

    <input>
        <osm-files value="data/network/kendall.map.osm"/>
    </input>

    <output>
        <output-file value="data/network/net.net.xml"/>
    </output>

    <projection>
        <proj.utm value="true"/>
    </projection>

    <processing>
        <geometry.remove value="true"/>
    </processing>

    <tls_building>
        <tls.discard-simple value="true"/>
        <tls.join value="true"/>
        <tls.guess-signals value="true"/>
    </tls_building>

    <ramp_guessing>
        <ramps.guess value="true"/>
    </ramp_guessing>

    <edge_removal>
        <keep-edges.by-vclass value="private"/>
    </edge_removal>

    <junctions>
        <junctions.join value="true"/>
    </junctions>

</configuration>
-->

<net version="1.3" junctionCornerDetail="5" limitTurnSpeed="5.50" xmlns:xsi="http://www.w3.org/2001/XMLSchema-instance" xsi:noNamespaceSchemaLocation="http://sumo.dlr.de/xsd/net_file.xsd">

    <location netOffset="-326685.12,-4691386.75" convBoundary="0.00,0.00,2688.28,2070.69" origBoundary="-71.120458,42.353343,-71.071131,42.387782" projParameter="+proj=utm +zone=19 +ellps=WGS84 +datum=WGS84 +units=m +no_defs"/>

    <type id="highway.bridleway" priority="1" numLanes="1" speed="2.78" allow="pedestrian" oneway="1" width="2.00"/>
    <type id="highway.bus_guideway" priority="1" numLanes="1" speed="27.78" allow="bus" oneway="1"/>
    <type id="highway.cycleway" priority="1" numLanes="1" speed="8.33" allow="bicycle" oneway="0" width="1.00"/>
    <type id="highway.footway" priority="1" numLanes="1" speed="2.78" allow="pedestrian" oneway="1" width="2.00"/>
    <type id="highway.ford" priority="1" numLanes="1" speed="2.78" allow="army" oneway="0"/>
    <type id="highway.living_street" priority="2" numLanes="1" speed="2.78" disallow="tram rail_urban rail rail_electric rail_fast ship" oneway="0"/>
    <type id="highway.motorway" priority="14" numLanes="2" speed="39.44" allow="private emergency authority army vip passenger hov taxi bus coach delivery truck trailer motorcycle evehicle custom1 custom2" oneway="1"/>
    <type id="highway.motorway_link" priority="9" numLanes="1" speed="22.22" allow="private emergency authority army vip passenger hov taxi bus coach delivery truck trailer motorcycle evehicle custom1 custom2" oneway="1"/>
    <type id="highway.path" priority="1" numLanes="1" speed="2.78" allow="pedestrian bicycle" oneway="1" width="2.00"/>
    <type id="highway.pedestrian" priority="1" numLanes="1" speed="2.78" allow="pedestrian" oneway="1" width="2.00"/>
    <type id="highway.primary" priority="12" numLanes="2" speed="27.78" disallow="tram rail_urban rail rail_electric rail_fast ship" oneway="0"/>
    <type id="highway.primary_link" priority="7" numLanes="1" speed="22.22" disallow="tram rail_urban rail rail_electric rail_fast ship" oneway="0"/>
    <type id="highway.raceway" priority="15" numLanes="2" speed="83.33" allow="vip" oneway="0"/>
    <type id="highway.residential" priority="3" numLanes="1" speed="13.89" disallow="tram rail_urban rail rail_electric rail_fast ship" oneway="0"/>
    <type id="highway.secondary" priority="11" numLanes="2" speed="27.78" disallow="tram rail_urban rail rail_electric rail_fast ship" oneway="0"/>
    <type id="highway.secondary_link" priority="6" numLanes="1" speed="22.22" disallow="tram rail_urban rail rail_electric rail_fast ship" oneway="0"/>
    <type id="highway.service" priority="1" numLanes="1" speed="5.56" allow="pedestrian delivery bicycle" oneway="0"/>
    <type id="highway.stairs" priority="1" numLanes="1" speed="1.39" allow="pedestrian" oneway="1" width="2.00"/>
    <type id="highway.step" priority="1" numLanes="1" speed="1.39" allow="pedestrian" oneway="1" width="2.00"/>
    <type id="highway.steps" priority="1" numLanes="1" speed="1.39" allow="pedestrian" oneway="1" width="2.00"/>
    <type id="highway.tertiary" priority="10" numLanes="1" speed="22.22" disallow="tram rail_urban rail rail_electric rail_fast ship" oneway="0"/>
    <type id="highway.tertiary_link" priority="5" numLanes="1" speed="22.22" disallow="tram rail_urban rail rail_electric rail_fast ship" oneway="0"/>
    <type id="highway.track" priority="1" numLanes="1" speed="5.56" disallow="tram rail_urban rail rail_electric rail_fast ship" oneway="0"/>
    <type id="highway.trunk" priority="13" numLanes="2" speed="27.78" disallow="pedestrian bicycle tram rail_urban rail rail_electric rail_fast ship" oneway="0"/>
    <type id="highway.trunk_link" priority="8" numLanes="1" speed="22.22" disallow="pedestrian bicycle tram rail_urban rail rail_electric rail_fast ship" oneway="0"/>
    <type id="highway.unclassified" priority="4" numLanes="1" speed="13.89" disallow="tram rail_urban rail rail_electric rail_fast ship" oneway="0"/>
    <type id="highway.unsurfaced" priority="1" numLanes="1" speed="8.33" disallow="tram rail_urban rail rail_electric rail_fast ship" oneway="0"/>
    <type id="railway.highspeed" priority="21" numLanes="1" speed="69.44" allow="rail_fast" oneway="1"/>
    <type id="railway.light_rail" priority="19" numLanes="1" speed="27.78" allow="rail_urban" oneway="1"/>
    <type id="railway.preserved" priority="16" numLanes="1" speed="27.78" allow="rail" oneway="1"/>
    <type id="railway.rail" priority="20" numLanes="1" speed="44.44" allow="rail" oneway="1"/>
    <type id="railway.subway" priority="18" numLanes="1" speed="27.78" allow="rail_urban" oneway="1"/>
    <type id="railway.tram" priority="17" numLanes="1" speed="13.89" allow="tram" oneway="1"/>

    <edge id=":1053508682_0" function="internal">
        <lane id=":1053508682_0_0" index="0" disallow="tram rail_urban rail rail_electric rail_fast ship" speed="19.48" length="0.23" shape="1398.61,1188.14 1398.27,1188.19"/>
        <lane id=":1053508682_0_1" index="1" disallow="tram rail_urban rail rail_electric rail_fast ship" speed="19.48" length="0.23" shape="1398.04,1184.99 1397.93,1185.01"/>
    </edge>
    <edge id=":1053508693_0" function="internal">
        <lane id=":1053508693_0_0" index="0" disallow="tram rail_urban rail rail_electric rail_fast ship" speed="19.48" length="0.30" shape="1488.01,1171.22 1487.71,1171.28"/>
        <lane id=":1053508693_0_1" index="1" disallow="tram rail_urban rail rail_electric rail_fast ship" speed="19.48" length="0.30" shape="1487.39,1168.08 1487.11,1168.14"/>
    </edge>
    <edge id=":1053508694_0" function="internal">
        <lane id=":1053508694_0_0" index="0" disallow="tram rail_urban rail rail_electric rail_fast ship" speed="6.50" length="9.03" shape="1543.01,1165.63 1542.19,1163.29 1540.81,1161.78 1538.89,1161.10 1536.42,1161.25"/>
    </edge>
    <edge id=":1053508694_1" function="internal">
        <lane id=":1053508694_1_0" index="0" disallow="tram rail_urban rail rail_electric rail_fast ship" speed="3.65" length="4.67" shape="1543.01,1165.63 1543.56,1164.29 1544.26,1163.74 1545.13,1163.98 1546.15,1165.00"/>
    </edge>
    <edge id=":1053508694_2" function="internal">
        <lane id=":1053508694_2_0" index="0" disallow="tram rail_urban rail rail_electric rail_fast ship" speed="6.56" length="9.08" shape="1550.49,1158.29 1548.18,1159.15 1546.68,1160.56 1546.00,1162.51 1546.15,1165.00"/>
    </edge>
    <edge id=":1053508694_3" function="internal">
        <lane id=":1053508694_3_0" index="0" disallow="tram rail_urban rail rail_electric rail_fast ship" speed="19.48" length="14.36" shape="1550.49,1158.29 1536.42,1161.25"/>
        <lane id=":1053508694_3_1" index="1" disallow="tram rail_urban rail rail_electric rail_fast ship" speed="19.48" length="14.36" shape="1549.81,1155.16 1535.78,1158.11"/>
    </edge>
    <edge id=":1053524030_0" function="internal">
        <lane id=":1053524030_0_0" index="0" disallow="tram rail_urban rail rail_electric rail_fast ship" speed="19.48" length="0.10" shape="1400.55,1172.51 1400.47,1172.52"/>
        <lane id=":1053524030_0_1" index="1" disallow="tram rail_urban rail rail_electric rail_fast ship" speed="19.48" length="0.10" shape="1401.02,1175.67 1401.10,1175.66"/>
    </edge>
    <edge id=":1053541761_0" function="internal">
        <lane id=":1053541761_0_0" index="0" disallow="tram rail_urban rail rail_electric rail_fast ship" speed="6.51" length="9.04" shape="1676.60,1138.82 1675.78,1136.48 1674.41,1134.97 1672.49,1134.28 1670.02,1134.41"/>
    </edge>
    <edge id=":1053541761_1" function="internal">
        <lane id=":1053541761_1_0" index="0" disallow="tram rail_urban rail rail_electric rail_fast ship" speed="3.65" length="4.67" shape="1676.60,1138.82 1677.15,1137.48 1677.86,1136.94 1678.72,1137.17 1679.74,1138.19"/>
    </edge>
    <edge id=":1053541761_2" function="internal">
        <lane id=":1053541761_2_0" index="0" disallow="tram rail_urban rail rail_electric rail_fast ship" speed="6.50" length="9.03" shape="1684.14,1131.61 1681.81,1132.43 1680.29,1133.80 1679.61,1135.72 1679.74,1138.19"/>
    </edge>
    <edge id=":1053541761_3" function="internal">
        <lane id=":1053541761_3_0" index="0" disallow="tram rail_urban rail rail_electric rail_fast ship" speed="27.78" length="14.40" shape="1684.14,1131.61 1670.02,1134.41"/>
        <lane id=":1053541761_3_1" index="1" disallow="tram rail_urban rail rail_electric rail_fast ship" speed="27.78" length="14.40" shape="1683.52,1128.47 1669.39,1131.27"/>
    </edge>
    <edge id=":1053541769_0" function="internal">
        <lane id=":1053541769_0_0" index="0" disallow="tram rail_urban rail rail_electric rail_fast ship" speed="19.48" length="0.28" shape="1545.75,1144.21 1546.00,1144.16"/>
        <lane id=":1053541769_0_1" index="1" disallow="tram rail_urban rail rail_electric rail_fast ship" speed="19.48" length="0.28" shape="1546.33,1147.35 1546.63,1147.30"/>
    </edge>
    <edge id=":1220427140_0" function="internal">
        <lane id=":1220427140_0_0" index="0" disallow="tram rail_urban rail rail_electric rail_fast ship" speed="6.51" length="9.03" shape="2058.42,1375.02 2057.61,1372.68 2056.25,1371.16 2054.33,1370.47 2051.86,1370.59"/>
    </edge>
    <edge id=":1220427140_1" function="internal">
        <lane id=":1220427140_1_0" index="0" disallow="tram rail_urban rail rail_electric rail_fast ship" speed="11.18" length="14.49" shape="2058.42,1375.02 2055.66,1360.80"/>
    </edge>
    <edge id=":1220427140_2" function="internal">
        <lane id=":1220427140_2_0" index="0" disallow="tram rail_urban rail rail_electric rail_fast ship" speed="8.12" length="14.31" shape="2058.42,1375.02 2058.23,1371.14 2059.33,1368.09 2061.72,1365.88 2065.39,1364.49"/>
    </edge>
    <edge id=":1220427140_3" function="internal">
        <lane id=":1220427140_3_0" index="0" disallow="tram rail_urban rail rail_electric rail_fast ship" speed="3.65" length="4.67" shape="2058.42,1375.02 2058.97,1373.69 2059.68,1373.15 2060.55,1373.39 2061.56,1374.42"/>
    </edge>
    <edge id=":1220427140_4" function="internal">
        <lane id=":1220427140_4_0" index="0" disallow="tram rail_urban rail rail_electric rail_fast ship" speed="6.65" length="9.26" shape="2066.09,1367.61 2063.70,1368.51 2062.16,1369.94 2061.44,1371.91 2061.56,1374.42"/>
    </edge>
    <edge id=":1220427140_5" function="internal">
        <lane id=":1220427140_5_0" index="0" disallow="tram rail_urban rail rail_electric rail_fast ship" speed="11.18" length="14.54" shape="2066.09,1367.61 2051.86,1370.59"/>
    </edge>
    <edge id=":1220427140_6" function="internal">
        <lane id=":1220427140_6_0" index="0" disallow="tram rail_urban rail rail_electric rail_fast ship" speed="7.95" length="14.30" shape="2066.09,1367.61 2062.17,1367.92 2059.12,1366.89 2056.95,1364.51 2055.66,1360.80"/>
    </edge>
    <edge id=":1220427140_7" function="internal">
        <lane id=":1220427140_7_0" index="0" disallow="tram rail_urban rail rail_electric rail_fast ship" speed="3.65" length="4.67" shape="2066.09,1367.61 2064.74,1367.10 2064.18,1366.40 2064.39,1365.54 2065.39,1364.49"/>
    </edge>
    <edge id=":1220427140_8" function="internal">
        <lane id=":1220427140_8_0" index="0" disallow="tram rail_urban rail rail_electric rail_fast ship" speed="6.45" length="9.03" shape="2058.80,1360.19 2059.62,1362.53 2060.99,1364.03 2062.91,1364.69 2065.39,1364.49"/>
    </edge>
    <edge id=":1220427140_9" function="internal">
        <lane id=":1220427140_9_0" index="0" disallow="tram rail_urban rail rail_electric rail_fast ship" speed="11.18" length="14.50" shape="2058.80,1360.19 2061.56,1374.42"/>
    </edge>
    <edge id=":1220427140_10" function="internal">
        <lane id=":1220427140_10_0" index="0" disallow="tram rail_urban rail rail_electric rail_fast ship" speed="8.02" length="14.27" shape="2058.80,1360.19 2059.00,1364.11 2057.91,1367.15 2055.53,1369.31 2051.86,1370.59"/>
    </edge>
    <edge id=":1220427140_11" function="internal">
        <lane id=":1220427140_11_0" index="0" disallow="tram rail_urban rail rail_electric rail_fast ship" speed="3.65" length="4.67" shape="2058.80,1360.19 2058.24,1361.52 2057.53,1362.06 2056.67,1361.82 2055.66,1360.80"/>
    </edge>
    <edge id=":1220427140_12" function="internal">
        <lane id=":1220427140_12_0" index="0" disallow="tram rail_urban rail rail_electric rail_fast ship" speed="6.53" length="9.10" shape="2051.25,1367.45 2053.59,1366.63 2055.10,1365.25 2055.79,1363.31 2055.66,1360.80"/>
    </edge>
    <edge id=":1220427140_13" function="internal">
        <lane id=":1220427140_13_0" index="0" disallow="tram rail_urban rail rail_electric rail_fast ship" speed="11.18" length="14.45" shape="2051.25,1367.45 2065.39,1364.49"/>
    </edge>
    <edge id=":1220427140_14" function="internal">
        <lane id=":1220427140_14_0" index="0" disallow="tram rail_urban rail rail_electric rail_fast ship" speed="8.00" length="14.20" shape="2051.25,1367.45 2055.13,1367.25 2058.15,1368.35 2060.29,1370.74 2061.56,1374.42"/>
    </edge>
    <edge id=":1220427140_15" function="internal">
        <lane id=":1220427140_15_0" index="0" disallow="tram rail_urban rail rail_electric rail_fast ship" speed="3.65" length="4.67" shape="2051.25,1367.45 2052.58,1368.00 2053.12,1368.71 2052.88,1369.58 2051.86,1370.59"/>
    </edge>
    <edge id=":138789027#0-AddedOnRampNode_0" function="internal">
        <lane id=":138789027#0-AddedOnRampNode_0_0" index="0" disallow="tram rail_urban rail rail_electric rail_fast ship" speed="27.78" length="8.00" shape="1726.99,511.42 1719.62,508.31"/>
        <lane id=":138789027#0-AddedOnRampNode_0_1" index="1" disallow="tram rail_urban rail rail_electric rail_fast ship" speed="27.78" length="8.00" shape="1728.23,508.47 1720.86,505.36"/>
    </edge>
    <edge id=":138789034#1-AddedOnRampNode_0" function="internal">
        <lane id=":138789034#1-AddedOnRampNode_0_0" index="0" disallow="tram rail_urban rail rail_electric rail_fast ship" speed="27.78" length="8.00" shape="1550.00,399.23 1557.37,402.35"/>
        <lane id=":138789034#1-AddedOnRampNode_0_1" index="1" disallow="tram rail_urban rail rail_electric rail_fast ship" speed="27.78" length="8.00" shape="1548.75,402.18 1556.12,405.30"/>
    </edge>
    <edge id=":1705308342_0" function="internal">
        <lane id=":1705308342_0_0" index="0" disallow="tram rail_urban rail rail_electric rail_fast ship" speed="11.18" length="8.41" shape="1093.41,1228.49 1091.91,1226.46 1090.27,1225.51 1088.64,1224.55 1087.19,1222.49"/>
        <lane id=":1705308342_0_1" index="1" disallow="tram rail_urban rail rail_electric rail_fast ship" speed="11.18" length="8.41" shape="1093.41,1228.49 1090.12,1221.21"/>
    </edge>
    <edge id=":1705308342_2" function="internal">
        <lane id=":1705308342_2_0" index="0" disallow="tram rail_urban rail rail_electric rail_fast ship" speed="11.18" length="7.91" shape="1093.06,1219.93 1096.31,1227.14"/>
    </edge>
    <edge id=":1705793314_0" function="internal">
        <lane id=":1705793314_0_0" index="0" disallow="tram rail_urban rail rail_electric rail_fast ship" speed="3.65" length="4.67" shape="111.34,227.15 110.74,225.85 110.81,224.95 111.57,224.48 113.01,224.42"/>
    </edge>
    <edge id=":2396898923_0" function="internal">
        <lane id=":2396898923_0_0" index="0" disallow="tram rail_urban rail rail_electric rail_fast ship" speed="7.20" length="8.05" shape="1711.62,713.53 1713.61,714.71 1715.52,715.24 1717.36,715.13 1719.12,714.38"/>
    </edge>
    <edge id=":2396898923_1" function="internal">
        <lane id=":2396898923_1_0" index="0" disallow="tram rail_urban rail rail_electric rail_fast ship" speed="27.78" length="9.21" shape="1711.51,719.92 1713.68,718.14 1715.18,716.96 1716.76,715.87 1719.12,714.38"/>
        <lane id=":2396898923_1_1" index="1" disallow="tram rail_urban rail rail_electric rail_fast ship" speed="27.78" length="9.21" shape="1713.55,722.39 1715.61,720.69 1717.05,719.56 1718.56,718.52 1720.81,717.09"/>
    </edge>
    <edge id=":2501927217_0" function="internal">
        <lane id=":2501927217_0_0" index="0" disallow="tram rail_urban rail rail_electric rail_fast ship" speed="25.00" length="8.21" shape="1796.70,689.19 1798.95,688.31 1800.35,687.36 1801.75,686.40 1803.99,685.52"/>
    </edge>
    <edge id=":2517602625_0" function="internal">
        <lane id=":2517602625_0_0" index="0" disallow="tram rail_urban rail rail_electric rail_fast ship" speed="27.78" length="0.29" shape="2092.37,647.16 2092.65,647.12"/>
    </edge>
    <edge id=":2517602626_0" function="internal">
        <lane id=":2517602626_0_0" index="0" disallow="tram rail_urban rail rail_electric rail_fast ship" speed="27.78" length="0.30" shape="2094.99,663.59 2094.69,663.62"/>
    </edge>
    <edge id=":2742595194_0" function="internal">
        <lane id=":2742595194_0_0" index="0" disallow="tram rail_urban rail rail_electric rail_fast ship" speed="11.18" length="14.56" shape="1781.75,966.43 1775.78,953.15"/>
    </edge>
    <edge id=":2742595194_1" function="internal">
        <lane id=":2742595194_1_0" index="0" disallow="tram rail_urban rail rail_electric rail_fast ship" speed="7.66" length="6.06" shape="1781.75,966.43 1780.57,962.32 1780.87,960.57"/>
    </edge>
    <edge id=":2742595194_2" function="internal">
        <lane id=":2742595194_2_0" index="0" disallow="tram rail_urban rail rail_electric rail_fast ship" speed="3.65" length="2.34" shape="1781.75,966.43 1781.99,965.01 1782.56,964.32"/>
    </edge>
    <edge id=":2742595194_9" function="internal">
        <lane id=":2742595194_9_0" index="0" disallow="tram rail_urban rail rail_electric rail_fast ship" speed="7.66" length="9.05" shape="1780.87,960.57 1781.12,959.09 1783.42,956.76 1787.45,955.31"/>
    </edge>
    <edge id=":2742595194_10" function="internal">
        <lane id=":2742595194_10_0" index="0" disallow="tram rail_urban rail rail_electric rail_fast ship" speed="3.65" length="2.34" shape="1782.56,964.32 1783.45,964.35 1784.67,965.12"/>
    </edge>
    <edge id=":2742595194_3" function="internal">
        <lane id=":2742595194_3_0" index="0" disallow="tram rail_urban rail rail_electric rail_fast ship" speed="6.08" length="9.06" shape="1788.09,958.45 1785.67,959.31 1784.29,960.71 1783.96,962.65 1784.67,965.12"/>
    </edge>
    <edge id=":2742595194_4" function="internal">
        <lane id=":2742595194_4_0" index="0" disallow="tram rail_urban rail rail_electric rail_fast ship" speed="8.85" length="14.63" shape="1788.09,958.45 1783.91,958.81 1780.46,958.05 1777.75,956.17 1775.78,953.15"/>
    </edge>
    <edge id=":2742595194_5" function="internal">
        <lane id=":2742595194_5_0" index="0" disallow="tram rail_urban rail rail_electric rail_fast ship" speed="3.65" length="4.67" shape="1788.09,958.45 1786.75,957.90 1786.20,957.20 1786.43,956.34 1787.45,955.31"/>
    </edge>
    <edge id=":2742595194_6" function="internal">
        <lane id=":2742595194_6_0" index="0" disallow="tram rail_urban rail rail_electric rail_fast ship" speed="7.50" length="10.26" shape="1778.70,951.84 1780.06,953.86 1781.97,955.12 1784.43,955.60 1787.45,955.31"/>
    </edge>
    <edge id=":2742595194_7" function="internal">
        <lane id=":2742595194_7_0" index="0" disallow="tram rail_urban rail rail_electric rail_fast ship" speed="11.18" length="14.56" shape="1778.70,951.84 1784.67,965.12"/>
    </edge>
    <edge id=":2742595194_8" function="internal">
        <lane id=":2742595194_8_0" index="0" disallow="tram rail_urban rail rail_electric rail_fast ship" speed="3.65" length="2.34" shape="1778.70,951.84 1778.46,953.26 1777.89,953.96"/>
    </edge>
    <edge id=":2742595194_11" function="internal">
        <lane id=":2742595194_11_0" index="0" disallow="tram rail_urban rail rail_electric rail_fast ship" speed="3.65" length="2.34" shape="1777.89,953.96 1777.00,953.92 1775.78,953.15"/>
    </edge>
    <edge id=":277666264_0" function="internal">
        <lane id=":277666264_0_0" index="0" disallow="tram rail_urban rail rail_electric rail_fast ship" speed="22.66" length="7.95" shape="2124.11,568.04 2126.40,569.13 2128.07,569.76 2129.57,570.60 2131.33,572.33"/>
        <lane id=":277666264_0_1" index="1" disallow="tram rail_urban rail rail_electric rail_fast ship" speed="21.13" length="7.95" shape="2122.54,570.83 2124.54,571.75 2126.03,572.25 2127.35,572.93 2128.90,574.41"/>
    </edge>
    <edge id=":277666264_2" function="internal">
        <lane id=":277666264_2_0" index="0" disallow="tram rail_urban rail rail_electric rail_fast ship" speed="7.85" length="5.66" shape="2121.35,574.41 2122.99,574.62 2124.39,575.03 2125.55,575.66 2126.46,576.49"/>
    </edge>
    <edge id=":277667281_0" function="internal">
        <lane id=":277667281_0_0" index="0" disallow="tram rail_urban rail rail_electric rail_fast ship" speed="27.78" length="10.85" shape="1701.52,457.83 1704.90,457.59 1707.22,455.00 1709.48,452.54 1712.65,452.72"/>
        <lane id=":277667281_0_1" index="1" disallow="tram rail_urban rail rail_electric rail_fast ship" speed="27.78" length="10.85" shape="1700.29,460.78 1711.03,455.48"/>
        <lane id=":277667281_0_2" index="2" disallow="tram rail_urban rail rail_electric rail_fast ship" speed="27.78" length="10.85" shape="1699.05,463.73 1709.41,458.24"/>
        <lane id=":277667281_0_3" index="3" disallow="tram rail_urban rail rail_electric rail_fast ship" speed="27.78" length="10.85" shape="1699.05,463.73 1701.64,463.72 1703.52,462.16 1705.35,460.70 1707.79,461.00"/>
        <lane id=":277667281_0_4" index="4" disallow="tram rail_urban rail rail_electric rail_fast ship" speed="27.78" length="10.85" shape="1699.05,463.73 1701.12,464.06 1702.69,463.58 1704.22,463.19 1706.17,463.76"/>
    </edge>
    <edge id=":277667281_5" function="internal">
        <lane id=":277667281_5_0" index="0" disallow="tram rail_urban rail rail_electric rail_fast ship" speed="25.00" length="6.18" shape="1699.05,463.73 1700.74,464.44 1701.87,464.98 1702.96,465.61 1704.50,466.61"/>
    </edge>
    <edge id=":356124053#0-AddedOffRampNode_0" function="internal">
        <lane id=":356124053#0-AddedOffRampNode_0_0" index="0" disallow="tram rail_urban rail rail_electric rail_fast ship" speed="27.78" length="6.70" shape="2140.87,813.54 2139.99,811.65 2138.69,810.67 2137.38,809.69 2136.50,807.80"/>
        <lane id=":356124053#0-AddedOffRampNode_0_1" index="1" disallow="tram rail_urban rail rail_electric rail_fast ship" speed="27.78" length="6.70" shape="2140.87,813.54 2139.65,807.20"/>
        <lane id=":356124053#0-AddedOffRampNode_0_2" index="2" disallow="tram rail_urban rail rail_electric rail_fast ship" speed="27.78" length="6.70" shape="2144.01,812.93 2142.79,806.59"/>
        <lane id=":356124053#0-AddedOffRampNode_0_3" index="3" disallow="tram rail_urban rail rail_electric rail_fast ship" speed="27.78" length="6.70" shape="2147.15,812.33 2145.93,805.99"/>
    </edge>
    <edge id=":3620902833_0" function="internal">
        <lane id=":3620902833_0_0" index="0" disallow="tram rail_urban rail rail_electric rail_fast ship" speed="11.18" length="7.59" shape="1717.44,832.55 1715.92,830.88 1714.29,830.28 1712.65,829.68 1711.06,828.06"/>
        <lane id=":3620902833_0_1" index="1" disallow="tram rail_urban rail rail_electric rail_fast ship" speed="11.18" length="7.59" shape="1717.44,832.55 1713.79,826.38"/>
    </edge>
    <edge id=":3620902833_2" function="internal">
        <lane id=":3620902833_2_0" index="0" disallow="tram rail_urban rail rail_electric rail_fast ship" speed="11.18" length="7.28" shape="1716.51,824.71 1720.22,830.97"/>
    </edge>
    <edge id=":3620929824_0" function="internal">
        <lane id=":3620929824_0_0" index="0" disallow="tram rail_urban rail rail_electric rail_fast ship" speed="25.00" length="7.96" shape="2050.67,672.51 2048.40,672.61 2046.91,673.26 2045.41,674.09 2043.15,674.71"/>
    </edge>
    <edge id=":3622695526_0" function="internal">
        <lane id=":3622695526_0_0" index="0" disallow="tram rail_urban rail rail_electric rail_fast ship" speed="6.95" length="2.49" shape="2013.78,652.86 2014.52,652.76 2015.04,652.73 2015.53,652.83 2016.20,653.11"/>
    </edge>
    <edge id=":3622695526_1" function="internal">
        <lane id=":3622695526_1_0" index="0" disallow="tram rail_urban rail rail_electric rail_fast ship" speed="25.00" length="3.01" shape="2014.19,656.03 2017.17,655.66"/>
    </edge>
    <edge id=":3622695549_0" function="internal">
        <lane id=":3622695549_0_0" index="0" disallow="tram rail_urban rail rail_electric rail_fast ship" speed="27.78" length="8.37" shape="2096.82,600.33 2092.01,593.53"/>
        <lane id=":3622695549_0_1" index="1" disallow="tram rail_urban rail rail_electric rail_fast ship" speed="27.78" length="8.37" shape="2099.47,598.54 2094.61,591.66"/>
    </edge>
    <edge id=":3622695549_2" function="internal">
        <lane id=":3622695549_2_0" index="0" disallow="tram rail_urban rail rail_electric rail_fast ship" speed="7.32" length="7.58" shape="2099.47,598.54 2098.78,597.01 2098.63,595.31 2099.02,593.42 2099.97,591.36"/>
    </edge>
    <edge id=":4257761665_0" function="internal">
        <lane id=":4257761665_0_0" index="0" disallow="tram rail_urban rail rail_electric rail_fast ship" speed="3.65" length="4.67" shape="347.70,1520.01 346.26,1519.90 345.52,1519.40 345.47,1518.51 346.12,1517.22"/>
    </edge>
    <edge id=":4257901541_0" function="internal">
        <lane id=":4257901541_0_0" index="0" disallow="tram rail_urban rail rail_electric rail_fast ship" speed="19.48" length="8.19" shape="1277.68,775.23 1275.33,775.72 1273.81,776.44 1272.29,777.18 1269.95,777.72"/>
        <lane id=":4257901541_0_1" index="1" disallow="tram rail_urban rail rail_electric rail_fast ship" speed="19.48" length="8.19" shape="1277.68,775.23 1275.27,775.23 1273.61,774.86 1271.96,774.50 1269.55,774.55"/>
    </edge>
    <edge id=":4257901542_0" function="internal">
        <lane id=":4257901542_0_0" index="0" disallow="tram rail_urban rail rail_electric rail_fast ship" speed="11.18" length="8.03" shape="1147.32,787.75 1139.34,788.59"/>
    </edge>
    <edge id=":4257901542_1" function="internal">
        <lane id=":4257901542_1_0" index="0" disallow="tram rail_urban rail rail_electric rail_fast ship" speed="11.18" length="8.37" shape="1139.04,785.40 1141.43,784.69 1142.84,783.45 1144.24,782.19 1146.62,781.39"/>
        <lane id=":4257901542_1_1" index="1" disallow="tram rail_urban rail rail_electric rail_fast ship" speed="11.18" length="8.37" shape="1139.04,785.40 1146.97,784.57"/>
    </edge>
    <edge id=":4257901543_0" function="internal">
        <lane id=":4257901543_0_0" index="0" disallow="tram rail_urban rail rail_electric rail_fast ship" speed="11.18" length="8.21" shape="1219.42,836.63 1218.66,834.34 1217.78,832.89 1216.91,831.44 1216.15,829.15"/>
        <lane id=":4257901543_0_1" index="1" disallow="tram rail_urban rail rail_electric rail_fast ship" speed="11.18" length="8.21" shape="1219.42,836.63 1219.15,834.23 1219.35,832.55 1219.54,830.87 1219.28,828.47"/>
        <lane id=":4257901543_0_2" index="2" disallow="tram rail_urban rail rail_electric rail_fast ship" speed="11.18" length="8.21" shape="1222.54,835.95 1222.28,833.55 1222.47,831.87 1222.67,830.19 1222.41,827.79"/>
    </edge>
    <edge id=":4257901544_0" function="internal">
        <lane id=":4257901544_0_0" index="0" disallow="tram rail_urban rail rail_electric rail_fast ship" speed="11.18" length="8.21" shape="1491.19,880.41 1489.27,881.87 1488.19,883.17 1487.11,884.48 1485.20,885.94"/>
        <lane id=":4257901544_0_1" index="1" disallow="tram rail_urban rail rail_electric rail_fast ship" speed="11.18" length="8.21" shape="1491.19,880.41 1489.01,881.44 1487.36,881.81 1485.70,882.18 1483.53,883.21"/>
    </edge>
    <edge id=":4257901545_0" function="internal">
        <lane id=":4257901545_0_0" index="0" disallow="tram rail_urban rail rail_electric rail_fast ship" speed="11.18" length="8.21" shape="1247.42,902.07 1248.17,904.35 1249.05,905.79 1249.94,907.23 1250.71,909.51"/>
        <lane id=":4257901545_0_1" index="1" disallow="tram rail_urban rail rail_electric rail_fast ship" speed="11.18" length="8.21" shape="1247.42,902.07 1247.68,904.46 1247.49,906.14 1247.31,907.82 1247.59,910.21"/>
        <lane id=":4257901545_0_2" index="2" disallow="tram rail_urban rail rail_electric rail_fast ship" speed="11.18" length="8.21" shape="1244.29,902.75 1244.56,905.15 1244.37,906.84 1244.18,908.52 1244.47,910.92"/>
    </edge>
    <edge id=":4257901546_0" function="internal">
        <lane id=":4257901546_0_0" index="0" disallow="tram rail_urban rail rail_electric rail_fast ship" speed="11.18" length="8.54" shape="1358.27,961.88 1356.41,963.57 1355.66,965.31 1354.90,967.04 1353.04,968.73"/>
        <lane id=":4257901546_0_1" index="1" disallow="tram rail_urban rail rail_electric rail_fast ship" speed="11.18" length="8.54" shape="1358.27,961.88 1351.40,965.98"/>