<?xml version="1.0" encoding="UTF-8"?>

<!-- generated on Thu Mar 26 13:22:35 2020 by Eclipse SUMO netconvert Version 1.4.0
<configuration xmlns:xsi="http://www.w3.org/2001/XMLSchema-instance" xsi:noNamespaceSchemaLocation="http://sumo.dlr.de/xsd/netconvertConfiguration.xsd">

    <input>
        <osm-files value="data/osm/paris.map.osm"/>
    </input>

    <output>
        <output-file value="data/network/net.net.xml"/>
    </output>

    <projection>
        <proj.utm value="true"/>
    </projection>

    <processing>
        <geometry.remove value="true"/>
    </processing>

    <tls_building>
        <tls.discard-simple value="true"/>
        <tls.join value="true"/>
        <tls.guess-signals value="true"/>
    </tls_building>

    <ramp_guessing>
        <ramps.guess value="true"/>
    </ramp_guessing>

    <edge_removal>
        <keep-edges.by-vclass value="private,public_transport,public_emergency,public_authority,public_army,vip"/>
    </edge_removal>

    <junctions>
        <junctions.join value="true"/>
    </junctions>

    <report>
        <aggregate-warnings value="5"/>
    </report>

</configuration>
-->

<net version="1.3" junctionCornerDetail="5" limitTurnSpeed="5.50" xmlns:xsi="http://www.w3.org/2001/XMLSchema-instance" xsi:noNamespaceSchemaLocation="http://sumo.dlr.de/xsd/net_file.xsd">

    <location netOffset="-446916.01,-5412674.21" convBoundary="0.00,0.00,2834.01,1531.48" origBoundary="2.236779,48.832513,2.394693,48.892044" projParameter="+proj=utm +zone=31 +ellps=WGS84 +datum=WGS84 +units=m +no_defs"/>

    <type id="highway.bridleway" priority="1" numLanes="1" speed="2.78" allow="pedestrian" oneway="1" width="2.00"/>
    <type id="highway.bus_guideway" priority="1" numLanes="1" speed="27.78" allow="bus" oneway="1"/>
    <type id="highway.cycleway" priority="1" numLanes="1" speed="8.33" allow="bicycle" oneway="0" width="1.00"/>
    <type id="highway.footway" priority="1" numLanes="1" speed="2.78" allow="pedestrian" oneway="1" width="2.00"/>
    <type id="highway.ford" priority="1" numLanes="1" speed="2.78" allow="army" oneway="0"/>
    <type id="highway.living_street" priority="2" numLanes="1" speed="2.78" disallow="tram rail_urban rail rail_electric rail_fast ship" oneway="0"/>
    <type id="highway.motorway" priority="14" numLanes="2" speed="39.44" allow="private emergency authority army vip passenger hov taxi bus coach delivery truck trailer motorcycle evehicle custom1 custom2" oneway="1"/>
    <type id="highway.motorway_link" priority="9" numLanes="1" speed="22.22" allow="private emergency authority army vip passenger hov taxi bus coach delivery truck trailer motorcycle evehicle custom1 custom2" oneway="1"/>
    <type id="highway.path" priority="1" numLanes="1" speed="2.78" allow="pedestrian bicycle" oneway="1" width="2.00"/>
    <type id="highway.pedestrian" priority="1" numLanes="1" speed="2.78" allow="pedestrian" oneway="1" width="2.00"/>
    <type id="highway.primary" priority="12" numLanes="2" speed="27.78" disallow="tram rail_urban rail rail_electric rail_fast ship" oneway="0"/>
    <type id="highway.primary_link" priority="7" numLanes="1" speed="22.22" disallow="tram rail_urban rail rail_electric rail_fast ship" oneway="0"/>
    <type id="highway.raceway" priority="15" numLanes="2" speed="83.33" allow="vip" oneway="0"/>
    <type id="highway.residential" priority="3" numLanes="1" speed="13.89" disallow="tram rail_urban rail rail_electric rail_fast ship" oneway="0"/>
    <type id="highway.secondary" priority="11" numLanes="1" speed="27.78" disallow="tram rail_urban rail rail_electric rail_fast ship" oneway="0"/>
    <type id="highway.secondary_link" priority="6" numLanes="1" speed="22.22" disallow="tram rail_urban rail rail_electric rail_fast ship" oneway="0"/>
    <type id="highway.service" priority="1" numLanes="1" speed="5.56" allow="pedestrian delivery bicycle" oneway="0"/>
    <type id="highway.stairs" priority="1" numLanes="1" speed="1.39" allow="pedestrian" oneway="1" width="2.00"/>
    <type id="highway.step" priority="1" numLanes="1" speed="1.39" allow="pedestrian" oneway="1" width="2.00"/>
    <type id="highway.steps" priority="1" numLanes="1" speed="1.39" allow="pedestrian" oneway="1" width="2.00"/>
    <type id="highway.tertiary" priority="10" numLanes="1" speed="22.22" disallow="tram rail_urban rail rail_electric rail_fast ship" oneway="0"/>
    <type id="highway.tertiary_link" priority="5" numLanes="1" speed="22.22" disallow="tram rail_urban rail rail_electric rail_fast ship" oneway="0"/>
    <type id="highway.track" priority="1" numLanes="1" speed="5.56" disallow="tram rail_urban rail rail_electric rail_fast ship" oneway="0"/>
    <type id="highway.trunk" priority="13" numLanes="2" speed="27.78" disallow="pedestrian bicycle tram rail_urban rail rail_electric rail_fast ship" oneway="0"/>
    <type id="highway.trunk_link" priority="8" numLanes="1" speed="22.22" disallow="pedestrian bicycle tram rail_urban rail rail_electric rail_fast ship" oneway="0"/>
    <type id="highway.unclassified" priority="4" numLanes="1" speed="13.89" disallow="tram rail_urban rail rail_electric rail_fast ship" oneway="0"/>
    <type id="highway.unsurfaced" priority="1" numLanes="1" speed="8.33" disallow="tram rail_urban rail rail_electric rail_fast ship" oneway="0"/>
    <type id="railway.highspeed" priority="21" numLanes="1" speed="69.44" allow="rail_fast" oneway="1"/>
    <type id="railway.light_rail" priority="19" numLanes="1" speed="27.78" allow="rail_urban" oneway="1"/>
    <type id="railway.preserved" priority="16" numLanes="1" speed="27.78" allow="rail" oneway="1"/>
    <type id="railway.rail" priority="20" numLanes="1" speed="44.44" allow="rail" oneway="1"/>
    <type id="railway.subway" priority="18" numLanes="1" speed="27.78" allow="rail_urban" oneway="1"/>
    <type id="railway.tram" priority="17" numLanes="1" speed="13.89" allow="tram" oneway="1"/>

    <edge id=":137552078_0" function="internal">
        <lane id=":137552078_0_0" index="0" disallow="tram rail_urban rail rail_electric rail_fast ship" speed="13.89" length="8.21" shape="1240.91,1085.55 1238.86,1086.81 1237.65,1088.00 1236.45,1089.20 1234.41,1090.48"/>
    </edge>
    <edge id=":1534591769_0" function="internal">
        <lane id=":1534591769_0_0" index="0" allow="bus bicycle" speed="13.89" length="8.21" shape="2514.57,462.78 2516.60,464.08 2518.19,464.65 2519.79,465.22 2521.81,466.52"/>
        <lane id=":1534591769_0_1" index="1" disallow="tram rail_urban rail rail_electric rail_fast ship" speed="13.89" length="8.21" shape="2512.57,465.28 2514.60,466.58 2516.19,467.15 2517.79,467.72 2519.81,469.02"/>
    </edge>
    <edge id=":15644295_0" function="internal">
        <lane id=":15644295_0_0" index="0" allow="bus bicycle" speed="13.89" length="11.27" shape="2603.55,902.98 2593.24,898.41"/>
    </edge>
    <edge id=":15644295_1" function="internal">
        <lane id=":15644295_1_0" index="0" allow="bus bicycle" speed="6.12" length="9.06" shape="2595.26,905.68 2596.42,903.40 2596.47,901.42 2595.41,899.76 2593.24,898.41"/>
    </edge>
    <edge id=":169326630_0" function="internal">
        <lane id=":169326630_0_0" index="0" disallow="tram rail_urban rail rail_electric rail_fast ship" speed="6.56" length="8.86" shape="2491.32,879.43 2491.12,877.06 2490.20,875.28 2488.55,874.10 2486.18,873.51"/>
    </edge>
    <edge id=":169326630_1" function="internal">
        <lane id=":169326630_1_0" index="0" allow="bus bicycle" speed="22.22" length="10.85" shape="2491.32,879.43 2491.95,868.60"/>
    </edge>
    <edge id=":1757087088_0" function="internal">
        <lane id=":1757087088_0_0" index="0" disallow="tram rail_urban rail rail_electric rail_fast ship" speed="11.54" length="15.41" shape="2549.73,878.82 2546.30,877.77 2542.69,877.64 2538.90,878.44 2534.92,880.17"/>
    </edge>
    <edge id=":1757087088_1" function="internal">
        <lane id=":1757087088_1_0" index="0" disallow="tram rail_urban rail rail_electric rail_fast ship" speed="13.89" length="18.21" shape="2549.73,878.82 2533.41,870.74"/>
    </edge>
    <edge id=":1757087088_2" function="internal">
        <lane id=":1757087088_2_0" index="0" disallow="tram rail_urban rail rail_electric rail_fast ship" speed="6.53" length="13.75" shape="2549.73,878.82 2545.74,876.48 2544.14,874.16 2544.92,871.87 2548.09,869.60"/>
    </edge>
    <edge id=":1757087088_3" function="internal">
        <lane id=":1757087088_3_0" index="0" disallow="tram rail_urban rail rail_electric rail_fast ship" speed="22.22" length="16.55" shape="2549.56,872.45 2534.92,880.17"/>
    </edge>
    <edge id=":1757087088_4" function="internal">
        <lane id=":1757087088_4_0" index="0" disallow="tram rail_urban rail rail_electric rail_fast ship" speed="11.62" length="5.98" shape="2549.56,872.45 2546.07,873.63 2543.77,873.69"/>
    </edge>
    <edge id=":1757087088_5" function="internal">
        <lane id=":1757087088_5_0" index="0" disallow="tram rail_urban rail rail_electric rail_fast ship" speed="3.65" length="2.34" shape="2549.56,872.45 2548.13,872.29 2547.41,871.76"/>
    </edge>
    <edge id=":1757087088_9" function="internal">
        <lane id=":1757087088_9_0" index="0" disallow="tram rail_urban rail rail_electric rail_fast ship" speed="11.62" length="10.90" shape="2543.77,873.69 2542.21,873.73 2537.99,872.77 2533.41,870.74"/>
    </edge>
    <edge id=":1757087088_10" function="internal">
        <lane id=":1757087088_10_0" index="0" disallow="tram rail_urban rail rail_electric rail_fast ship" speed="3.65" length="2.34" shape="2547.41,871.76 2547.39,870.87 2548.09,869.60"/>
    </edge>
    <edge id=":1757087088_6" function="internal">
        <lane id=":1757087088_6_0" index="0" disallow="tram rail_urban rail rail_electric rail_fast ship" speed="5.61" length="9.31" shape="2533.40,877.35 2535.71,875.70 2536.47,874.04 2535.71,872.39 2533.41,870.74"/>
    </edge>
    <edge id=":1757087088_7" function="internal">
        <lane id=":1757087088_7_0" index="0" disallow="tram rail_urban rail rail_electric rail_fast ship" speed="22.22" length="16.60" shape="2533.40,877.35 2548.09,869.60"/>
    </edge>
    <edge id=":1757087088_8" function="internal">
        <lane id=":1757087088_8_0" index="0" disallow="tram rail_urban rail rail_electric rail_fast ship" speed="3.65" length="2.34" shape="2533.40,877.35 2534.84,877.48 2535.57,878.00"/>
    </edge>
    <edge id=":1757087088_11" function="internal">
        <lane id=":1757087088_11_0" index="0" disallow="tram rail_urban rail rail_electric rail_fast ship" speed="3.65" length="2.34" shape="2535.57,878.00 2535.60,878.89 2534.92,880.17"/>
    </edge>
    <edge id=":176932324_0" function="internal">
        <lane id=":176932324_0_0" index="0" disallow="tram rail_urban rail rail_electric rail_fast ship" speed="8.87" length="10.47" shape="1107.58,1013.94 1106.23,1011.22 1104.57,1009.17 1102.60,1007.78 1100.33,1007.06"/>
    </edge>
    <edge id=":176932324_1" function="internal">
        <lane id=":176932324_1_0" index="0" disallow="tram rail_urban rail rail_electric rail_fast ship" speed="3.65" length="2.56" shape="1107.58,1013.94 1107.88,1012.53 1108.48,1011.87 1108.70,1011.89"/>
    </edge>
    <edge id=":176932324_4" function="internal">
        <lane id=":176932324_4_0" index="0" disallow="tram rail_urban rail rail_electric rail_fast ship" speed="3.65" length="2.11" shape="1108.70,1011.89 1109.37,1011.95 1110.56,1012.77"/>
    </edge>
    <edge id=":176932324_2" function="internal">
        <lane id=":176932324_2_0" index="0" disallow="tram rail_urban rail rail_electric rail_fast ship" speed="6.50" length="9.03" shape="1113.72,1005.52 1111.57,1006.73 1110.32,1008.35 1109.99,1010.36 1110.56,1012.77"/>
    </edge>
    <edge id=":176932324_3" function="internal">
        <lane id=":176932324_3_0" index="0" disallow="tram rail_urban rail rail_electric rail_fast ship" speed="13.89" length="13.66" shape="1113.72,1005.52 1110.36,1006.64 1107.13,1007.27 1103.85,1007.41 1100.33,1007.06"/>
    </edge>
    <edge id=":176932548_0" function="internal">
        <lane id=":176932548_0_0" index="0" disallow="tram rail_urban rail rail_electric rail_fast ship" speed="11.73" length="8.58" shape="1201.29,970.79 1198.85,970.66 1197.20,971.16 1195.62,972.12 1193.39,973.39"/>
    </edge>
    <edge id=":176932548_1" function="internal">
        <lane id=":176932548_1_0" index="0" disallow="tram rail_urban rail rail_electric rail_fast ship" speed="13.89" length="9.50" shape="1201.29,970.79 1191.90,969.34"/>
        <lane id=":176932548_1_1" index="1" disallow="tram rail_urban rail rail_electric rail_fast ship" speed="13.89" length="9.50" shape="1201.80,967.63 1192.40,966.18"/>
    </edge>
    <edge id=":176932548_3" function="internal">
        <lane id=":176932548_3_0" index="0" disallow="tram rail_urban rail rail_electric rail_fast ship" speed="3.65" length="2.34" shape="1201.80,967.63 1200.74,966.65 1200.47,965.80"/>
    </edge>
    <edge id=":176932548_11" function="internal">
        <lane id=":176932548_11_0" index="0" disallow="tram rail_urban rail rail_electric rail_fast ship" speed="3.65" length="2.34" shape="1200.47,965.80 1200.99,965.07 1202.30,964.47"/>
    </edge>
    <edge id=":176932548_4" function="internal">
        <lane id=":176932548_4_0" index="0" disallow="tram rail_urban rail rail_electric rail_fast ship" speed="13.10" length="9.46" shape="1195.08,956.31 1197.09,958.29 1198.52,959.70 1200.17,960.66 1202.81,961.32"/>
    </edge>
    <edge id=":176932548_5" function="internal">
        <lane id=":176932548_5_0" index="0" disallow="tram rail_urban rail rail_electric rail_fast ship" speed="8.71" length="11.24" shape="1195.08,956.31 1199.35,961.32 1200.49,965.83"/>
    </edge>
    <edge id=":176932548_6" function="internal">
        <lane id=":176932548_6_0" index="0" disallow="tram rail_urban rail rail_electric rail_fast ship" speed="7.27" length="12.38" shape="1195.08,956.31 1200.11,961.60 1201.34,965.01 1200.09,965.75"/>
    </edge>
    <edge id=":176932548_12" function="internal">
        <lane id=":176932548_12_0" index="0" disallow="tram rail_urban rail rail_electric rail_fast ship" speed="8.71" length="10.71" shape="1200.49,965.83 1198.51,969.85 1193.39,973.39"/>
    </edge>
    <edge id=":176932548_13" function="internal">
        <lane id=":176932548_13_0" index="0" disallow="tram rail_urban rail rail_electric rail_fast ship" speed="7.27" length="7.91" shape="1200.09,965.75 1198.77,966.53 1192.40,966.18"/>
    </edge>
    <edge id=":176932548_7" function="internal">
        <lane id=":176932548_7_0" index="0" disallow="tram rail_urban rail rail_electric rail_fast ship" speed="13.89" length="9.53" shape="1193.39,959.85 1202.81,961.32"/>
        <lane id=":176932548_7_1" index="1" disallow="tram rail_urban rail rail_electric rail_fast ship" speed="13.89" length="9.53" shape="1192.90,963.02 1202.30,964.47"/>
    </edge>
    <edge id=":176932548_9" function="internal">
        <lane id=":176932548_9_0" index="0" disallow="tram rail_urban rail rail_electric rail_fast ship" speed="7.25" length="7.92" shape="1192.90,963.02 1199.06,964.63 1200.13,965.76"/>
    </edge>
    <edge id=":176932548_10" function="internal">
        <lane id=":176932548_10_0" index="0" disallow="tram rail_urban rail rail_electric rail_fast ship" speed="3.65" length="2.34" shape="1192.90,963.02 1193.96,963.99 1194.23,964.84"/>
    </edge>
    <edge id=":176932548_14" function="internal">
        <lane id=":176932548_14_0" index="0" disallow="tram rail_urban rail rail_electric rail_fast ship" speed="7.25" length="11.95" shape="1200.13,965.76 1201.20,966.89 1199.31,969.81 1193.39,973.39"/>
    </edge>
    <edge id=":176932548_15" function="internal">
        <lane id=":176932548_15_0" index="0" disallow="tram rail_urban rail rail_electric rail_fast ship" speed="3.65" length="2.34" shape="1194.23,964.84 1193.71,965.57 1192.40,966.18"/>
    </edge>
    <edge id=":176932867_0" function="internal">
        <lane id=":176932867_0_0" index="0" disallow="tram rail_urban rail rail_electric rail_fast ship" speed="13.89" length="10.54" shape="1115.51,1025.38 1116.39,1028.30 1116.69,1030.51 1117.03,1032.71 1118.01,1035.58"/>
    </edge>
    <edge id=":176932867_1" function="internal">
        <lane id=":176932867_1_0" index="0" disallow="tram rail_urban rail rail_electric rail_fast ship" speed="3.65" length="2.56" shape="1115.51,1025.38 1115.20,1026.79 1114.60,1027.46 1114.38,1027.44"/>
    </edge>
    <edge id=":176932867_4" function="internal">
        <lane id=":176932867_4_0" index="0" disallow="tram rail_urban rail rail_electric rail_fast ship" speed="3.65" length="2.12" shape="1114.38,1027.44 1113.71,1027.38 1112.53,1026.55"/>
    </edge>
    <edge id=":176932867_2" function="internal">
        <lane id=":176932867_2_0" index="0" disallow="tram rail_urban rail rail_electric rail_fast ship" speed="6.52" length="8.52" shape="1109.76,1033.63 1111.68,1032.34 1112.78,1030.73 1113.06,1028.80 1112.53,1026.55"/>
    </edge>
    <edge id=":176932867_3" function="internal">
        <lane id=":176932867_3_0" index="0" disallow="tram rail_urban rail rail_electric rail_fast ship" speed="6.63" length="5.93" shape="1109.76,1033.63 1112.56,1032.64 1114.87,1032.64 1115.45,1032.95"/>
    </edge>
    <edge id=":176932867_5" function="internal">
        <lane id=":176932867_5_0" index="0" disallow="tram rail_urban rail rail_electric rail_fast ship" speed="6.63" length="3.78" shape="1115.45,1032.95 1116.69,1033.62 1118.01,1035.58"/>
    </edge>
    <edge id=":1938007754_0" function="internal">
        <lane id=":1938007754_0_0" index="0" disallow="tram rail_urban rail rail_electric rail_fast ship" speed="3.65" length="4.67" shape="2372.99,251.10 2371.77,250.33 2371.35,249.54 2371.74,248.73 2372.92,247.90"/>
    </edge>
    <edge id=":1962530964_0" function="internal">
        <lane id=":1962530964_0_0" index="0" disallow="tram rail_urban rail rail_electric rail_fast ship" speed="7.36" length="9.34" shape="1329.09,1039.54 1327.20,1037.89 1325.16,1037.04 1322.98,1037.00 1320.66,1037.75"/>
    </edge>
    <edge id=":1962530964_1" function="internal">
        <lane id=":1962530964_1_0" index="0" disallow="tram rail_urban rail rail_electric rail_fast ship" speed="8.13" length="11.59" shape="1329.09,1039.54 1326.28,1036.78 1323.71,1035.08 1321.37,1034.44 1319.27,1034.87"/>
    </edge>
    <edge id=":1962530964_2" function="internal">
        <lane id=":1962530964_2_0" index="0" disallow="tram rail_urban rail rail_electric rail_fast ship" speed="8.91" length="14.06" shape="1329.09,1039.54 1325.37,1035.67 1322.26,1033.12 1319.76,1031.89 1317.88,1031.99"/>
    </edge>
    <edge id=":1962530964_3" function="internal">
        <lane id=":1962530964_3_0" index="0" disallow="tram rail_urban rail rail_electric rail_fast ship" speed="9.66" length="16.69" shape="1329.09,1039.54 1324.45,1034.56 1320.80,1031.15 1318.15,1029.34 1316.49,1029.11"/>
    </edge>
    <edge id=":1962530964_4" function="internal">
        <lane id=":1962530964_4_0" index="0" disallow="tram rail_urban rail rail_electric rail_fast ship" speed="13.89" length="32.35" shape="1329.09,1039.54 1322.67,1031.98 1318.96,1026.19 1316.57,1019.71 1314.10,1010.07"/>
        <lane id=":1962530964_4_1" index="1" disallow="tram rail_urban rail rail_electric rail_fast ship" speed="13.89" length="32.35" shape="1331.91,1037.89 1325.56,1030.42 1321.88,1024.69 1319.51,1018.28 1317.07,1008.75"/>
        <lane id=":1962530964_4_2" index="2" disallow="tram rail_urban rail rail_electric rail_fast ship" speed="13.89" length="32.35" shape="1334.72,1036.24 1328.44,1028.85 1324.80,1023.19 1322.46,1016.85 1320.04,1007.43"/>
        <lane id=":1962530964_4_3" index="3" disallow="tram rail_urban rail rail_electric rail_fast ship" speed="13.89" length="32.35" shape="1337.53,1034.59 1331.32,1027.28 1327.72,1021.69 1325.40,1015.43 1323.02,1006.11"/>
        <lane id=":1962530964_4_4" index="4" disallow="tram rail_urban rail rail_electric rail_fast ship" speed="13.89" length="32.35" shape="1340.35,1032.94 1334.20,1025.71 1330.64,1020.19 1328.35,1014.00 1325.99,1004.79"/>
        <lane id=":1962530964_4_5" index="5" disallow="tram rail_urban rail rail_electric rail_fast ship" speed="13.89" length="32.35" shape="1343.16,1031.29 1337.09,1024.15 1333.57,1018.69 1331.29,1012.57 1328.96,1003.47"/>
        <lane id=":1962530964_4_6" index="6" disallow="tram rail_urban rail rail_electric rail_fast ship" speed="13.89" length="32.35" shape="1345.97,1029.63 1339.97,1022.58 1336.49,1017.18 1334.23,1011.14 1331.93,1002.14"/>
        <lane id=":1962530964_4_7" index="7" disallow="tram rail_urban rail rail_electric rail_fast ship" speed="13.89" length="32.35" shape="1348.79,1027.98 1342.85,1021.01 1339.41,1015.68 1337.18,1009.71 1334.90,1000.82"/>
    </edge>
    <edge id=":1962530964_12" function="internal">
        <lane id=":1962530964_12_0" index="0" disallow="tram rail_urban rail rail_electric rail_fast ship" speed="7.00" length="8.93" shape="1310.93,1017.58 1312.81,1016.30 1313.97,1014.62 1314.40,1012.54 1314.10,1010.07"/>
    </edge>
    <edge id=":1962530964_13" function="internal">
        <lane id=":1962530964_13_0" index="0" disallow="tram rail_urban rail rail_electric rail_fast ship" speed="8.58" length="13.83" shape="1312.32,1020.46 1315.17,1018.49 1316.92,1015.88 1317.55,1012.64 1317.07,1008.75"/>
    </edge>
    <edge id=":1962530964_14" function="internal">
        <lane id=":1962530964_14_0" index="0" disallow="tram rail_urban rail rail_electric rail_fast ship" speed="9.90" length="18.74" shape="1313.71,1023.34 1317.54,1020.69 1319.87,1017.15 1320.71,1012.73 1320.04,1007.43"/>
    </edge>
    <edge id=":1962530964_15" function="internal">
        <lane id=":1962530964_15_0" index="0" disallow="tram rail_urban rail rail_electric rail_fast ship" speed="11.07" length="23.65" shape="1315.10,1026.22 1319.91,1022.88 1322.83,1018.42 1323.86,1012.83 1323.02,1006.11"/>
    </edge>
    <edge id=":1962530964_16" function="internal">
        <lane id=":1962530964_16_0" index="0" disallow="tram rail_urban rail rail_electric rail_fast ship" speed="11.66" length="26.33" shape="1315.10,1026.22 1321.20,1022.27 1325.04,1017.38 1326.64,1011.55 1325.99,1004.79"/>
    </edge>
    <edge id=":1962530964_17" function="internal">
        <lane id=":1962530964_17_0" index="0" disallow="tram rail_urban rail rail_electric rail_fast ship" speed="12.24" length="29.09" shape="1315.10,1026.22 1322.49,1021.65 1327.26,1016.34 1329.42,1010.27 1328.96,1003.47"/>
    </edge>
    <edge id=":1986477360_0" function="internal">
        <lane id=":1986477360_0_0" index="0" disallow="tram rail_urban rail rail_electric rail_fast ship" speed="3.65" length="4.67" shape="1194.51,1341.70 1193.23,1342.37 1192.34,1342.34 1191.82,1341.61 1191.69,1340.18"/>
    </edge>
    <edge id=":1987167031_0" function="internal">
        <lane id=":1987167031_0_0" index="0" disallow="tram rail_urban rail rail_electric rail_fast ship" speed="3.65" length="4.67" shape="1015.88,229.36 1016.09,227.94 1016.64,227.23 1017.53,227.25 1018.77,227.98"/>
    </edge>
    <edge id=":21292970_0" function="internal">
        <lane id=":21292970_0_0" index="0" disallow="tram rail_urban rail rail_electric rail_fast ship" speed="6.48" length="9.03" shape="1354.73,1060.22 1352.42,1059.33 1350.38,1059.41 1348.62,1060.44 1347.15,1062.43"/>
    </edge>
    <edge id=":21292970_1" function="internal">
        <lane id=":21292970_1_0" index="0" disallow="tram rail_urban rail rail_electric rail_fast ship" speed="13.89" length="12.88" shape="1354.73,1060.22 1351.04,1058.17 1348.54,1056.72 1346.13,1055.13 1342.69,1052.68"/>
        <lane id=":21292970_1_1" index="1" disallow="tram rail_urban rail rail_electric rail_fast ship" speed="13.89" length="12.88" shape="1356.29,1057.42 1352.69,1055.43 1350.26,1054.02 1347.91,1052.47 1344.57,1050.09"/>
        <lane id=":21292970_1_2" index="2" disallow="tram rail_urban rail rail_electric rail_fast ship" speed="13.89" length="12.88" shape="1357.84,1054.62 1354.35,1052.69 1351.98,1051.32 1349.70,1049.82 1346.45,1047.50"/>
        <lane id=":21292970_1_3" index="3" disallow="tram rail_urban rail rail_electric rail_fast ship" speed="13.89" length="12.88" shape="1359.39,1051.83 1356.00,1049.95 1353.70,1048.61 1351.48,1047.16 1348.33,1044.91"/>
        <lane id=":21292970_1_4" index="4" disallow="tram rail_urban rail rail_electric rail_fast ship" speed="13.89" length="12.88" shape="1360.95,1049.03 1357.66,1047.21 1355.42,1045.91 1353.27,1044.50 1350.20,1042.32"/>
        <lane id=":21292970_1_5" index="5" disallow="tram rail_urban rail rail_electric rail_fast ship" speed="13.89" length="12.88" shape="1362.50,1046.23 1359.31,1044.46 1357.14,1043.21 1355.05,1041.84 1352.08,1039.72"/>
        <lane id=":21292970_1_6" index="6" disallow="tram rail_urban rail rail_electric rail_fast ship" speed="13.89" length="12.88" shape="1364.06,1043.44 1360.96,1041.72 1358.87,1040.51 1356.84,1039.19 1353.96,1037.13"/>
        <lane id=":21292970_1_7" index="7" disallow="tram rail_urban rail rail_electric rail_fast ship" speed="13.89" length="12.88" shape="1365.61,1040.64 1362.62,1038.98 1360.59,1037.81 1358.62,1036.53 1355.84,1034.54"/>
    </edge>
    <edge id=":21292970_9" function="internal">
        <lane id=":21292970_9_0" index="0" disallow="tram rail_urban rail rail_electric rail_fast ship" speed="6.92" length="9.32" shape="1344.33,1060.91 1345.26,1058.50 1345.29,1056.32 1344.44,1054.38 1342.69,1052.68"/>
    </edge>
    <edge id=":21292970_10" function="internal">
        <lane id=":21292970_10_0" index="0" disallow="tram rail_urban rail rail_electric rail_fast ship" speed="7.72" length="11.81" shape="1344.33,1060.91 1345.95,1057.27 1346.53,1054.26 1346.07,1051.86 1344.57,1050.09"/>
    </edge>
    <edge id=":21292970_11" function="internal">
        <lane id=":21292970_11_0" index="0" disallow="tram rail_urban rail rail_electric rail_fast ship" speed="8.49" length="14.48" shape="1344.33,1060.91 1346.64,1056.05 1347.76,1052.19 1347.70,1049.34 1346.45,1047.50"/>
    </edge>
    <edge id=":21292970_12" function="internal">
        <lane id=":21292970_12_0" index="0" disallow="tram rail_urban rail rail_electric rail_fast ship" speed="9.22" length="17.26" shape="1344.33,1060.91 1347.33,1054.82 1349.00,1050.12 1349.33,1046.82 1348.33,1044.91"/>
    </edge>
    <edge id=":21292970_13" function="internal">
        <lane id=":21292970_13_0" index="0" disallow="tram rail_urban rail rail_electric rail_fast ship" speed="9.92" length="20.11" shape="1344.33,1060.91 1348.03,1053.59 1350.23,1048.05 1350.96,1044.29 1350.20,1042.32"/>
    </edge>
    <edge id=":21292970_14" function="internal">
        <lane id=":21292970_14_0" index="0" disallow="tram rail_urban rail rail_electric rail_fast ship" speed="10.58" length="23.03" shape="1344.33,1060.91 1348.72,1052.36 1351.47,1045.98 1352.59,1041.77 1352.08,1039.72"/>
    </edge>
    <edge id=":21659950_0" function="internal">
        <lane id=":21659950_0_0" index="0" disallow="tram rail_urban rail rail_electric rail_fast ship" speed="6.67" length="9.60" shape="1412.58,815.62 1412.61,818.38 1413.43,820.44 1415.05,821.80 1417.47,822.47"/>
    </edge>
    <edge id=":21659950_1" function="internal">
        <lane id=":21659950_1_0" index="0" disallow="tram rail_urban rail rail_electric rail_fast ship" speed="13.89" length="15.41" shape="1412.58,815.62 1411.01,830.90"/>
        <lane id=":21659950_1_1" index="1" disallow="tram rail_urban rail rail_electric rail_fast ship" speed="13.89" length="15.41" shape="1409.41,815.24 1407.82,830.61"/>
    </edge>
    <edge id=":21659950_3" function="internal">
        <lane id=":21659950_3_0" index="0" disallow="tram rail_urban rail rail_electric rail_fast ship" speed="7.32" length="4.56" shape="1409.41,815.24 1407.38,819.32"/>
    </edge>
    <edge id=":21659950_4" function="internal">
        <lane id=":21659950_4_0" index="0" disallow="tram rail_urban rail rail_electric rail_fast ship" speed="3.65" length="2.34" shape="1409.41,815.24 1408.47,816.34 1407.63,816.64"/>
    </edge>
    <edge id=":21659950_15" function="internal">
        <lane id=":21659950_15_0" index="0" disallow="tram rail_urban rail rail_electric rail_fast ship" speed="7.32" length="16.07" shape="1407.38,819.32 1407.11,819.85 1402.78,821.21 1397.94,819.57 1394.14,815.15"/>
    </edge>
    <edge id=":21659950_16" function="internal">
        <lane id=":21659950_16_0" index="0" disallow="tram rail_urban rail rail_electric rail_fast ship" speed="3.65" length="2.34" shape="1407.63,816.64 1406.88,816.14 1406.23,814.86"/>
    </edge>
    <edge id=":21659950_5" function="internal">
        <lane id=":21659950_5_0" index="0" disallow="tram rail_urban rail rail_electric rail_fast ship" speed="5.41" length="8.07" shape="1391.95,820.89 1393.97,820.58 1395.02,819.52 1395.07,817.71 1394.14,815.15"/>
    </edge>
    <edge id=":21659950_6" function="internal">
        <lane id=":21659950_6_0" index="0" disallow="tram rail_urban rail rail_electric rail_fast ship" speed="8.29" length="14.19" shape="1391.95,820.89 1396.50,820.59 1399.87,819.42 1402.06,817.38 1403.05,814.48"/>
    </edge>
    <edge id=":21659950_7" function="internal">
        <lane id=":21659950_7_0" index="0" disallow="tram rail_urban rail rail_electric rail_fast ship" speed="13.89" length="25.44" shape="1391.95,820.89 1398.75,821.09 1404.73,821.35 1410.69,821.78 1417.47,822.47"/>
        <lane id=":21659950_7_1" index="1" disallow="tram rail_urban rail rail_electric rail_fast ship" speed="13.89" length="25.44" shape="1391.87,824.09 1398.63,824.28 1404.51,824.54 1410.37,824.96 1417.10,825.65"/>
    </edge>
    <edge id=":21659950_9" function="internal">
        <lane id=":21659950_9_0" index="0" disallow="tram rail_urban rail rail_electric rail_fast ship" speed="8.94" length="18.75" shape="1391.87,824.09 1399.03,824.66 1404.08,825.93 1407.01,827.92 1407.82,830.61"/>
    </edge>
    <edge id=":21659950_10" function="internal">