<?xml version="1.0" encoding="UTF-8"?>

<!-- generated on Wed Dec  4 15:46:56 2019 by Eclipse SUMO netconvert Version 1.3.1
<configuration xmlns:xsi="http://www.w3.org/2001/XMLSchema-instance" xsi:noNamespaceSchemaLocation="http://sumo.dlr.de/xsd/netconvertConfiguration.xsd">

    <input>
        <osm-files value="data/map.osm"/>
    </input>

    <output>
        <output-file value="data/net.net.xml"/>
    </output>

    <projection>
        <proj.utm value="true"/>
    </projection>

    <processing>
        <geometry.remove value="true"/>
    </processing>

    <tls_building>
        <tls.discard-simple value="true"/>
        <tls.join value="true"/>
        <tls.guess-signals value="true"/>
    </tls_building>

    <ramp_guessing>
        <ramps.guess value="true"/>
    </ramp_guessing>

    <junctions>
        <junctions.join value="true"/>
    </junctions>

</configuration>
-->

<net version="1.3" junctionCornerDetail="5" limitTurnSpeed="5.50" xmlns:xsi="http://www.w3.org/2001/XMLSchema-instance" xsi:noNamespaceSchemaLocation="http://sumo.dlr.de/xsd/net_file.xsd">

    <location netOffset="-325427.70,-4691158.63" convBoundary="0.00,0.00,4015.45,3849.30" origBoundary="-71.120458,42.353343,-71.071131,42.387782" projParameter="+proj=utm +zone=19 +ellps=WGS84 +datum=WGS84 +units=m +no_defs"/>

    <type id="highway.bridleway" priority="1" numLanes="1" speed="2.78" allow="pedestrian" oneway="1" width="2.00"/>
    <type id="highway.bus_guideway" priority="1" numLanes="1" speed="27.78" allow="bus" oneway="1"/>
    <type id="highway.cycleway" priority="1" numLanes="1" speed="8.33" allow="bicycle" oneway="0" width="1.00"/>
    <type id="highway.footway" priority="1" numLanes="1" speed="2.78" allow="pedestrian" oneway="1" width="2.00"/>
    <type id="highway.ford" priority="1" numLanes="1" speed="2.78" allow="army" oneway="0"/>
    <type id="highway.living_street" priority="2" numLanes="1" speed="2.78" disallow="tram rail_urban rail rail_electric rail_fast ship" oneway="0"/>
    <type id="highway.motorway" priority="14" numLanes="2" speed="39.44" allow="private emergency authority army vip passenger hov taxi bus coach delivery truck trailer motorcycle evehicle custom1 custom2" oneway="1"/>
    <type id="highway.motorway_link" priority="9" numLanes="1" speed="22.22" allow="private emergency authority army vip passenger hov taxi bus coach delivery truck trailer motorcycle evehicle custom1 custom2" oneway="1"/>
    <type id="highway.path" priority="1" numLanes="1" speed="2.78" allow="pedestrian bicycle" oneway="1" width="2.00"/>
    <type id="highway.pedestrian" priority="1" numLanes="1" speed="2.78" allow="pedestrian" oneway="1" width="2.00"/>
    <type id="highway.primary" priority="12" numLanes="2" speed="27.78" disallow="tram rail_urban rail rail_electric rail_fast ship" oneway="0"/>
    <type id="highway.primary_link" priority="7" numLanes="1" speed="22.22" disallow="tram rail_urban rail rail_electric rail_fast ship" oneway="0"/>
    <type id="highway.raceway" priority="15" numLanes="2" speed="83.33" allow="vip" oneway="0"/>
    <type id="highway.residential" priority="3" numLanes="1" speed="13.89" disallow="tram rail_urban rail rail_electric rail_fast ship" oneway="0"/>
    <type id="highway.secondary" priority="11" numLanes="2" speed="27.78" disallow="tram rail_urban rail rail_electric rail_fast ship" oneway="0"/>
    <type id="highway.secondary_link" priority="6" numLanes="1" speed="22.22" disallow="tram rail_urban rail rail_electric rail_fast ship" oneway="0"/>
    <type id="highway.service" priority="1" numLanes="1" speed="5.56" allow="pedestrian delivery bicycle" oneway="0"/>
    <type id="highway.stairs" priority="1" numLanes="1" speed="1.39" allow="pedestrian" oneway="1" width="2.00"/>
    <type id="highway.step" priority="1" numLanes="1" speed="1.39" allow="pedestrian" oneway="1" width="2.00"/>
    <type id="highway.steps" priority="1" numLanes="1" speed="1.39" allow="pedestrian" oneway="1" width="2.00"/>
    <type id="highway.tertiary" priority="10" numLanes="1" speed="22.22" disallow="tram rail_urban rail rail_electric rail_fast ship" oneway="0"/>
    <type id="highway.tertiary_link" priority="5" numLanes="1" speed="22.22" disallow="tram rail_urban rail rail_electric rail_fast ship" oneway="0"/>
    <type id="highway.track" priority="1" numLanes="1" speed="5.56" disallow="tram rail_urban rail rail_electric rail_fast ship" oneway="0"/>
    <type id="highway.trunk" priority="13" numLanes="2" speed="27.78" disallow="pedestrian bicycle tram rail_urban rail rail_electric rail_fast ship" oneway="0"/>
    <type id="highway.trunk_link" priority="8" numLanes="1" speed="22.22" disallow="pedestrian bicycle tram rail_urban rail rail_electric rail_fast ship" oneway="0"/>
    <type id="highway.unclassified" priority="4" numLanes="1" speed="13.89" disallow="tram rail_urban rail rail_electric rail_fast ship" oneway="0"/>
    <type id="highway.unsurfaced" priority="1" numLanes="1" speed="8.33" disallow="tram rail_urban rail rail_electric rail_fast ship" oneway="0"/>
    <type id="railway.highspeed" priority="21" numLanes="1" speed="69.44" allow="rail_fast" oneway="1"/>
    <type id="railway.light_rail" priority="19" numLanes="1" speed="27.78" allow="rail_urban" oneway="1"/>
    <type id="railway.preserved" priority="16" numLanes="1" speed="27.78" allow="rail" oneway="1"/>
    <type id="railway.rail" priority="20" numLanes="1" speed="44.44" allow="rail" oneway="1"/>
    <type id="railway.subway" priority="18" numLanes="1" speed="27.78" allow="rail_urban" oneway="1"/>
    <type id="railway.tram" priority="17" numLanes="1" speed="13.89" allow="tram" oneway="1"/>

    <edge id=":1040626708_0" function="internal">
        <lane id=":1040626708_0_0" index="0" allow="bicycle" speed="2.04" length="1.46" width="1.00" shape="3797.78,1580.10 3797.82,1580.55 3797.71,1580.80 3797.43,1580.86 3797.00,1580.72"/>
    </edge>
    <edge id=":1053508682_0" function="internal">
        <lane id=":1053508682_0_0" index="0" disallow="tram rail_urban rail rail_electric rail_fast ship" speed="19.48" length="0.23" shape="2656.03,1416.26 2655.69,1416.31"/>
        <lane id=":1053508682_0_1" index="1" disallow="tram rail_urban rail rail_electric rail_fast ship" speed="19.48" length="0.23" shape="2655.46,1413.11 2655.35,1413.12"/>
    </edge>
    <edge id=":1053508693_0" function="internal">
        <lane id=":1053508693_0_0" index="0" disallow="tram rail_urban rail rail_electric rail_fast ship" speed="19.48" length="0.30" shape="2745.43,1399.34 2745.13,1399.40"/>
        <lane id=":1053508693_0_1" index="1" disallow="tram rail_urban rail rail_electric rail_fast ship" speed="19.48" length="0.30" shape="2744.81,1396.20 2744.53,1396.25"/>
    </edge>
    <edge id=":1053524030_0" function="internal">
        <lane id=":1053524030_0_0" index="0" disallow="tram rail_urban rail rail_electric rail_fast ship" speed="19.48" length="0.10" shape="2657.97,1400.62 2657.89,1400.64"/>
        <lane id=":1053524030_0_1" index="1" disallow="tram rail_urban rail rail_electric rail_fast ship" speed="19.48" length="0.10" shape="2658.44,1403.79 2658.52,1403.77"/>
    </edge>
    <edge id=":1053541761_0" function="internal">
        <lane id=":1053541761_0_0" index="0" disallow="tram rail_urban rail rail_electric rail_fast ship" speed="6.51" length="9.04" shape="2934.02,1366.93 2933.20,1364.60 2931.83,1363.08 2929.91,1362.39 2927.44,1362.53"/>
    </edge>
    <edge id=":1053541761_1" function="internal">
        <lane id=":1053541761_1_0" index="0" disallow="tram rail_urban rail rail_electric rail_fast ship" speed="3.65" length="4.67" shape="2934.02,1366.93 2934.57,1365.60 2935.28,1365.05 2936.14,1365.29 2937.16,1366.31"/>
    </edge>
    <edge id=":1053541761_2" function="internal">
        <lane id=":1053541761_2_0" index="0" disallow="tram rail_urban rail rail_electric rail_fast ship" speed="6.50" length="9.03" shape="2941.56,1359.72 2939.23,1360.54 2937.71,1361.91 2937.03,1363.84 2937.16,1366.31"/>
    </edge>
    <edge id=":1053541761_3" function="internal">
        <lane id=":1053541761_3_0" index="0" disallow="tram rail_urban rail rail_electric rail_fast ship" speed="27.78" length="14.40" shape="2941.56,1359.72 2927.44,1362.53"/>
        <lane id=":1053541761_3_1" index="1" disallow="tram rail_urban rail rail_electric rail_fast ship" speed="27.78" length="14.40" shape="2940.94,1356.59 2926.81,1359.39"/>
    </edge>
    <edge id=":1053541769_0" function="internal">
        <lane id=":1053541769_0_0" index="0" disallow="tram rail_urban rail rail_electric rail_fast ship" speed="19.48" length="6.83" shape="2799.98,1372.90 2806.66,1371.62"/>
        <lane id=":1053541769_0_1" index="1" disallow="tram rail_urban rail rail_electric rail_fast ship" speed="19.48" length="6.83" shape="2800.55,1376.05 2807.29,1374.76"/>
    </edge>
    <edge id=":1220427140_0" function="internal">
        <lane id=":1220427140_0_0" index="0" disallow="tram rail_urban rail rail_electric rail_fast ship" speed="6.51" length="9.03" shape="3315.84,1603.14 3315.03,1600.80 3313.67,1599.28 3311.75,1598.58 3309.28,1598.70"/>
    </edge>
    <edge id=":1220427140_1" function="internal">
        <lane id=":1220427140_1_0" index="0" disallow="tram rail_urban rail rail_electric rail_fast ship" speed="11.18" length="14.49" shape="3315.84,1603.14 3313.08,1588.91"/>
    </edge>
    <edge id=":1220427140_2" function="internal">
        <lane id=":1220427140_2_0" index="0" disallow="tram rail_urban rail rail_electric rail_fast ship" speed="8.12" length="14.31" shape="3315.84,1603.14 3315.65,1599.26 3316.75,1596.21 3319.14,1593.99 3322.81,1592.61"/>
    </edge>
    <edge id=":1220427140_3" function="internal">
        <lane id=":1220427140_3_0" index="0" disallow="tram rail_urban rail rail_electric rail_fast ship" speed="3.65" length="4.67" shape="3315.84,1603.14 3316.39,1601.81 3317.10,1601.26 3317.97,1601.51 3318.98,1602.53"/>
    </edge>
    <edge id=":1220427140_4" function="internal">
        <lane id=":1220427140_4_0" index="0" disallow="tram rail_urban rail rail_electric rail_fast ship" speed="6.65" length="9.26" shape="3323.51,1595.73 3321.12,1596.63 3319.58,1598.06 3318.86,1600.03 3318.98,1602.53"/>
    </edge>
    <edge id=":1220427140_5" function="internal">
        <lane id=":1220427140_5_0" index="0" disallow="tram rail_urban rail rail_electric rail_fast ship" speed="11.18" length="14.54" shape="3323.51,1595.73 3309.28,1598.70"/>
    </edge>
    <edge id=":1220427140_6" function="internal">
        <lane id=":1220427140_6_0" index="0" disallow="tram rail_urban rail rail_electric rail_fast ship" speed="7.95" length="14.30" shape="3323.51,1595.73 3319.59,1596.04 3316.54,1595.00 3314.37,1592.63 3313.08,1588.91"/>
    </edge>
    <edge id=":1220427140_7" function="internal">
        <lane id=":1220427140_7_0" index="0" disallow="tram rail_urban rail rail_electric rail_fast ship" speed="3.65" length="4.67" shape="3323.51,1595.73 3322.16,1595.21 3321.60,1594.52 3321.81,1593.65 3322.81,1592.61"/>
    </edge>
    <edge id=":1220427140_8" function="internal">
        <lane id=":1220427140_8_0" index="0" disallow="tram rail_urban rail rail_electric rail_fast ship" speed="6.45" length="9.03" shape="3316.22,1588.30 3317.03,1590.65 3318.41,1592.15 3320.33,1592.80 3322.81,1592.61"/>
    </edge>
    <edge id=":1220427140_9" function="internal">
        <lane id=":1220427140_9_0" index="0" disallow="tram rail_urban rail rail_electric rail_fast ship" speed="11.18" length="14.50" shape="3316.22,1588.30 3318.98,1602.53"/>
    </edge>
    <edge id=":1220427140_10" function="internal">
        <lane id=":1220427140_10_0" index="0" disallow="tram rail_urban rail rail_electric rail_fast ship" speed="8.02" length="14.27" shape="3316.22,1588.30 3316.42,1592.22 3315.33,1595.27 3312.95,1597.43 3309.28,1598.70"/>
    </edge>
    <edge id=":1220427140_11" function="internal">
        <lane id=":1220427140_11_0" index="0" disallow="tram rail_urban rail rail_electric rail_fast ship" speed="3.65" length="4.67" shape="3316.22,1588.30 3315.66,1589.63 3314.95,1590.18 3314.09,1589.94 3313.08,1588.91"/>
    </edge>
    <edge id=":1220427140_12" function="internal">
        <lane id=":1220427140_12_0" index="0" disallow="tram rail_urban rail rail_electric rail_fast ship" speed="6.53" length="9.10" shape="3308.67,1595.56 3311.00,1594.75 3312.52,1593.37 3313.21,1591.42 3313.08,1588.91"/>
    </edge>
    <edge id=":1220427140_13" function="internal">
        <lane id=":1220427140_13_0" index="0" disallow="tram rail_urban rail rail_electric rail_fast ship" speed="11.18" length="14.45" shape="3308.67,1595.56 3322.81,1592.61"/>
    </edge>
    <edge id=":1220427140_14" function="internal">
        <lane id=":1220427140_14_0" index="0" disallow="tram rail_urban rail rail_electric rail_fast ship" speed="8.00" length="14.20" shape="3308.67,1595.56 3312.55,1595.37 3315.57,1596.47 3317.71,1598.85 3318.98,1602.53"/>
    </edge>
    <edge id=":1220427140_15" function="internal">
        <lane id=":1220427140_15_0" index="0" disallow="tram rail_urban rail rail_electric rail_fast ship" speed="3.65" length="4.67" shape="3308.67,1595.56 3310.00,1596.12 3310.54,1596.83 3310.30,1597.69 3309.28,1598.70"/>
    </edge>
    <edge id=":1220482494_0" function="internal">
        <lane id=":1220482494_0_0" index="0" disallow="tram rail_urban rail rail_electric rail_fast ship" speed="11.18" length="4.62" shape="3177.13,1875.33 3176.16,1870.82"/>
    </edge>
    <edge id=":1220482494_1" function="internal">
        <lane id=":1220482494_1_0" index="0" disallow="tram rail_urban rail rail_electric rail_fast ship" speed="3.65" length="4.67" shape="3177.13,1875.33 3177.71,1874.01 3178.43,1873.48 3179.28,1873.74 3180.28,1874.78"/>
    </edge>
    <edge id=":1220482494_2" function="internal">
        <lane id=":1220482494_2_0" index="0" disallow="tram rail_urban rail rail_electric rail_fast ship" speed="11.18" length="4.87" shape="3179.25,1870.01 3180.28,1874.78"/>
    </edge>
    <edge id=":1220482494_3" function="internal">
        <lane id=":1220482494_3_0" index="0" disallow="tram rail_urban rail rail_electric rail_fast ship" speed="3.65" length="4.67" shape="3179.25,1870.01 3178.78,1871.38 3178.11,1871.96 3177.23,1871.78 3176.16,1870.82"/>
    </edge>
    <edge id=":1220482499_0" function="internal">
        <lane id=":1220482499_0_0" index="0" disallow="tram rail_urban rail rail_electric rail_fast ship" speed="11.18" length="5.06" shape="3193.83,1855.02 3188.88,1856.05"/>
    </edge>
    <edge id=":1220482499_1" function="internal">
        <lane id=":1220482499_1_0" index="0" disallow="tram rail_urban rail rail_electric rail_fast ship" speed="3.65" length="2.34" shape="3193.83,1855.02 3192.50,1854.46 3191.96,1853.74"/>
    </edge>
    <edge id=":1220482499_4" function="internal">
        <lane id=":1220482499_4_0" index="0" disallow="tram rail_urban rail rail_electric rail_fast ship" speed="3.65" length="2.34" shape="3191.96,1853.74 3192.20,1852.88 3193.23,1851.87"/>
    </edge>
    <edge id=":1220482499_2" function="internal">
        <lane id=":1220482499_2_0" index="0" disallow="tram rail_urban rail rail_electric rail_fast ship" speed="11.18" length="5.17" shape="3188.17,1852.93 3193.23,1851.87"/>
    </edge>
    <edge id=":1220482499_3" function="internal">
        <lane id=":1220482499_3_0" index="0" disallow="tram rail_urban rail rail_electric rail_fast ship" speed="3.65" length="2.34" shape="3188.17,1852.93 3189.52,1853.45 3190.08,1854.14"/>
    </edge>
    <edge id=":1220482499_5" function="internal">
        <lane id=":1220482499_5_0" index="0" disallow="tram rail_urban rail rail_electric rail_fast ship" speed="3.65" length="2.34" shape="3190.08,1854.14 3189.87,1855.01 3188.88,1856.05"/>
    </edge>
    <edge id=":1220577082_0" function="internal">
        <lane id=":1220577082_0_0" index="0" disallow="tram rail_urban rail rail_electric rail_fast ship" speed="11.18" length="5.00" shape="3344.44,1745.47 3349.35,1744.54"/>
    </edge>
    <edge id=":1230174346_0" function="internal">
        <lane id=":1230174346_0_0" index="0" allow="pedestrian bicycle" speed="2.78" length="10.40" width="2.00" shape="2459.62,1023.79 2460.49,1026.70 2461.13,1028.77 2461.67,1030.87 2462.27,1033.84"/>
    </edge>
    <edge id=":1230178098_0" function="internal">
        <lane id=":1230178098_0_0" index="0" allow="pedestrian delivery bicycle" speed="3.65" length="4.67" shape="2551.78,1070.65 2552.95,1071.50 2553.32,1072.32 2552.88,1073.10 2551.65,1073.85"/>
    </edge>
    <edge id=":1230178117_0" function="internal">
        <lane id=":1230178117_0_0" index="0" allow="pedestrian delivery bicycle" speed="5.56" length="11.49" shape="2543.16,1104.21 2541.77,1092.80"/>
    </edge>
    <edge id=":1230178117_1" function="internal">
        <lane id=":1230178117_1_0" index="0" allow="pedestrian delivery bicycle" speed="5.56" length="12.78" shape="2543.16,1104.21 2543.34,1101.63 2544.44,1099.00 2546.45,1096.32 2549.38,1093.60"/>
    </edge>
    <edge id=":1230178117_2" function="internal">
        <lane id=":1230178117_2_0" index="0" allow="pedestrian delivery bicycle" speed="3.65" length="4.67" shape="2543.16,1104.21 2543.83,1102.93 2544.58,1102.44 2545.42,1102.76 2546.34,1103.86"/>
    </edge>
    <edge id=":1230178117_3" function="internal">
        <lane id=":1230178117_3_0" index="0" allow="pedestrian delivery bicycle" speed="5.56" length="11.20" shape="2552.65,1095.47 2549.69,1097.26 2547.65,1099.26 2546.53,1101.46 2546.34,1103.86"/>
    </edge>
    <edge id=":1230178117_4" function="internal">
        <lane id=":1230178117_4_0" index="0" allow="pedestrian delivery bicycle" speed="5.56" length="13.78" shape="2552.65,1095.47 2548.25,1097.14 2544.97,1097.26 2542.81,1095.81 2541.77,1092.80"/>
    </edge>
    <edge id=":1230178117_5" function="internal">
        <lane id=":1230178117_5_0" index="0" allow="pedestrian delivery bicycle" speed="3.97" length="5.51" shape="2552.65,1095.47 2551.13,1096.23 2550.08,1096.17 2549.50,1095.30 2549.38,1093.60"/>
    </edge>
    <edge id=":1230178117_6" function="internal">
        <lane id=":1230178117_6_0" index="0" allow="pedestrian delivery bicycle" speed="4.80" length="6.34" shape="2544.95,1092.41 2545.43,1094.11 2546.33,1094.88 2547.64,1094.71 2549.38,1093.60"/>
    </edge>
    <edge id=":1230178117_7" function="internal">
        <lane id=":1230178117_7_0" index="0" allow="pedestrian delivery bicycle" speed="5.56" length="11.54" shape="2544.95,1092.41 2546.34,1103.86"/>
    </edge>
    <edge id=":1230178117_8" function="internal">
        <lane id=":1230178117_8_0" index="0" allow="pedestrian delivery bicycle" speed="3.65" length="4.67" shape="2544.95,1092.41 2544.30,1093.70 2543.56,1094.19 2542.71,1093.90 2541.77,1092.80"/>
    </edge>
    <edge id=":1230178128_0" function="internal">
        <lane id=":1230178128_0_0" index="0" allow="pedestrian delivery bicycle" speed="3.65" length="4.67" shape="2553.01,1091.72 2554.44,1091.91 2555.16,1092.45 2555.15,1093.34 2554.43,1094.59"/>
    </edge>
    <edge id=":1230178140_0" function="internal">
        <lane id=":1230178140_0_0" index="0" allow="pedestrian delivery bicycle" speed="5.56" length="9.44" shape="2564.93,1143.97 2556.76,1148.70"/>
    </edge>
    <edge id=":1230178140_1" function="internal">
        <lane id=":1230178140_1_0" index="0" allow="pedestrian delivery bicycle" speed="5.56" length="10.22" shape="2564.93,1143.97 2562.49,1144.91 2560.20,1144.84 2558.05,1143.75 2556.04,1141.64"/>
    </edge>
    <edge id=":1230178140_2" function="internal">
        <lane id=":1230178140_2_0" index="0" allow="pedestrian delivery bicycle" speed="3.65" length="4.67" shape="2564.93,1143.97 2563.49,1143.88 2562.74,1143.39 2562.69,1142.49 2563.32,1141.20"/>
    </edge>
    <edge id=":1230178140_3" function="internal">
        <lane id=":1230178140_3_0" index="0" allow="pedestrian delivery bicycle" speed="5.44" length="5.48" shape="2558.61,1139.73 2559.72,1140.93 2560.88,1141.57 2562.08,1141.66 2563.32,1141.20"/>
    </edge>
    <edge id=":1230178140_4" function="internal">
        <lane id=":1230178140_4_0" index="0" allow="pedestrian delivery bicycle" speed="5.56" length="10.73" shape="2558.61,1139.73 2560.03,1142.36 2560.20,1144.74 2559.11,1146.85 2556.76,1148.70"/>
    </edge>
    <edge id=":1230178140_5" function="internal">
        <lane id=":1230178140_5_0" index="0" allow="pedestrian delivery bicycle" speed="3.65" length="4.67" shape="2558.61,1139.73 2558.69,1141.17 2558.28,1141.97 2557.40,1142.13 2556.04,1141.64"/>
    </edge>
    <edge id=":1230178140_6" function="internal">
        <lane id=":1230178140_6_0" index="0" allow="pedestrian delivery bicycle" speed="4.93" length="5.14" shape="2555.16,1145.93 2556.28,1145.05 2556.80,1144.03 2556.72,1142.90 2556.04,1141.64"/>
    </edge>
    <edge id=":1230178140_7" function="internal">
        <lane id=":1230178140_7_0" index="0" allow="pedestrian delivery bicycle" speed="5.56" length="9.44" shape="2555.16,1145.93 2563.32,1141.20"/>
    </edge>
    <edge id=":1230178140_8" function="internal">
        <lane id=":1230178140_8_0" index="0" allow="pedestrian delivery bicycle" speed="3.65" length="4.67" shape="2555.16,1145.93 2556.60,1146.02 2557.34,1146.52 2557.40,1147.41 2556.76,1148.70"/>
    </edge>
    <edge id=":1378322258_0" function="internal">
        <lane id=":1378322258_0_0" index="0" disallow="tram rail_urban rail rail_electric rail_fast ship" speed="4.70" length="4.02" shape="2046.67,1224.99 2047.28,1226.34 2047.90,1227.25 2048.54,1227.71 2049.19,1227.72"/>
    </edge>
    <edge id=":1378322258_1" function="internal">
        <lane id=":1378322258_1_0" index="0" allow="pedestrian delivery bicycle" speed="3.65" length="4.67" shape="2046.67,1224.99 2046.35,1226.39 2045.74,1227.05 2044.85,1226.96 2043.68,1226.12"/>
    </edge>
    <edge id=":1378322258_2" function="internal">
        <lane id=":1378322258_2_0" index="0" allow="pedestrian delivery bicycle" speed="4.98" length="5.07" shape="2041.76,1230.06 2043.02,1229.46 2043.76,1228.60 2043.98,1227.48 2043.68,1226.12"/>
    </edge>
    <edge id=":1378322258_3" function="internal">
        <lane id=":1378322258_3_0" index="0" disallow="tram rail_urban rail rail_electric rail_fast ship" speed="11.18" length="7.79" shape="2041.76,1230.06 2049.19,1227.72"/>
    </edge>
    <edge id=":1378322260_0" function="internal">
        <lane id=":1378322260_0_0" index="0" disallow="tram rail_urban rail rail_electric rail_fast ship" speed="5.09" length="5.05" shape="2170.28,1162.52 2171.19,1163.58 2172.21,1164.11 2173.35,1164.11 2174.60,1163.57"/>
    </edge>
    <edge id=":1378322260_1" function="internal">
        <lane id=":1378322260_1_0" index="0" allow="pedestrian delivery bicycle" speed="3.65" length="4.67" shape="2170.28,1162.52 2170.25,1163.96 2169.80,1164.73 2168.91,1164.82 2167.59,1164.24"/>
    </edge>
    <edge id=":1378322260_2" function="internal">
        <lane id=":1378322260_2_0" index="0" allow="pedestrian delivery bicycle" speed="5.03" length="5.01" shape="2166.63,1168.52 2167.68,1167.63 2168.19,1166.62 2168.16,1165.49 2167.59,1164.24"/>
    </edge>
    <edge id=":1378322260_3" function="internal">
        <lane id=":1378322260_3_0" index="0" disallow="tram rail_urban rail rail_electric rail_fast ship" speed="11.18" length="9.38" shape="2166.63,1168.52 2174.60,1163.57"/>
    </edge>
    <edge id=":1378322262_0" function="internal">
        <lane id=":1378322262_0_0" index="0" disallow="tram rail_urban rail rail_electric rail_fast ship" speed="4.88" length="5.22" shape="2059.96,1220.81 2060.36,1222.22 2061.11,1223.08 2062.21,1223.39 2063.66,1223.16"/>
    </edge>
    <edge id=":1378322262_1" function="internal">
        <lane id=":1378322262_1_0" index="0" allow="pedestrian delivery bicycle" speed="3.65" length="4.67" shape="2059.96,1220.81 2059.33,1222.11 2058.59,1222.61 2057.74,1222.32 2056.79,1221.24"/>
    </edge>
    <edge id=":1378322262_2" function="internal">
        <lane id=":1378322262_2_0" index="0" allow="pedestrian delivery bicycle" speed="5.68" length="5.76" shape="2054.60,1226.01 2055.76,1225.39 2056.51,1224.39 2056.85,1223.01 2056.79,1221.24"/>
    </edge>
    <edge id=":1378322262_3" function="internal">
        <lane id=":1378322262_3_0" index="0" disallow="tram rail_urban rail rail_electric rail_fast ship" speed="11.18" length="9.49" shape="2054.60,1226.01 2063.66,1223.16"/>
    </edge>
    <edge id=":1378322267_0" function="internal">
        <lane id=":1378322267_0_0" index="0" disallow="tram rail_urban rail rail_electric rail_fast ship" speed="5.00" length="5.05" shape="2138.59,1182.39 2139.45,1183.48 2140.44,1184.03 2141.58,1184.02 2142.85,1183.45"/>
    </edge>
    <edge id=":1378322267_1" function="internal">
        <lane id=":1378322267_1_0" index="0" allow="pedestrian delivery bicycle" speed="3.65" length="4.67" shape="2138.59,1182.39 2138.50,1183.83 2138.00,1184.57 2137.11,1184.62 2135.82,1183.98"/>
    </edge>
    <edge id=":1378322267_2" function="internal">
        <lane id=":1378322267_2_0" index="0" allow="pedestrian delivery bicycle" speed="5.18" length="5.16" shape="2134.88,1188.45 2135.91,1187.57 2136.40,1186.53 2136.37,1185.33 2135.82,1183.98"/>
    </edge>
    <edge id=":1378322267_3" function="internal">
        <lane id=":1378322267_3_0" index="0" disallow="tram rail_urban rail rail_electric rail_fast ship" speed="11.18" length="9.41" shape="2134.88,1188.45 2142.85,1183.45"/>
    </edge>
    <edge id=":1378322274_0" function="internal">
        <lane id=":1378322274_0_0" index="0" disallow="tram rail_urban rail rail_electric rail_fast ship" speed="5.50" length="5.56" shape="2109.19,1200.21 2110.38,1201.37 2111.59,1201.98 2112.80,1202.04 2114.03,1201.54"/>
    </edge>
    <edge id=":1378322274_1" function="internal">
        <lane id=":1378322274_1_0" index="0" allow="pedestrian delivery bicycle" speed="3.65" length="4.67" shape="2109.19,1200.21 2109.34,1201.64 2108.97,1202.46 2108.10,1202.66 2106.72,1202.24"/>
    </edge>
    <edge id=":1378322274_2" function="internal">
        <lane id=":1378322274_2_0" index="0" allow="pedestrian delivery bicycle" speed="4.91" length="5.16" shape="2106.02,1206.57 2107.12,1205.64 2107.60,1204.61 2107.47,1203.47 2106.72,1202.24"/>
    </edge>
    <edge id=":1378322274_3" function="internal">
        <lane id=":1378322274_3_0" index="0" disallow="tram rail_urban rail rail_electric rail_fast ship" speed="11.18" length="9.45" shape="2106.02,1206.57 2114.03,1201.54"/>
    </edge>
    <edge id=":1378322277_0" function="internal">
        <lane id=":1378322277_0_0" index="0" disallow="tram rail_urban rail rail_electric rail_fast ship" speed="4.88" length="5.21" shape="2009.41,1236.75 2009.82,1238.15 2010.57,1239.01 2011.67,1239.32 2013.12,1239.09"/>
    </edge>
    <edge id=":1378322277_1" function="internal">
        <lane id=":1378322277_1_0" index="0" allow="pedestrian delivery bicycle" speed="3.65" length="4.67" shape="2009.41,1236.75 2008.79,1238.05 2008.05,1238.56 2007.20,1238.27 2006.24,1237.19"/>
    </edge>
    <edge id=":1378322277_2" function="internal">
        <lane id=":1378322277_2_0" index="0" allow="pedestrian delivery bicycle" speed="5.65" length="5.73" shape="2004.07,1241.94 2005.22,1241.32 2005.97,1240.32 2006.31,1238.95 2006.24,1237.19"/>
    </edge>
    <edge id=":1378322277_3" function="internal">
        <lane id=":1378322277_3_0" index="0" disallow="tram rail_urban rail rail_electric rail_fast ship" speed="11.18" length="9.49" shape="2004.07,1241.94 2013.12,1239.09"/>
    </edge>
    <edge id=":138789027#0-AddedOnRampNode_0" function="internal">
        <lane id=":138789027#0-AddedOnRampNode_0_0" index="0" disallow="tram rail_urban rail rail_electric rail_fast ship" speed="27.78" length="8.00" shape="2984.41,739.54 2977.04,736.43"/>
        <lane id=":138789027#0-AddedOnRampNode_0_1" index="1" disallow="tram rail_urban rail rail_electric rail_fast ship" speed="27.78" length="8.00" shape="2985.65,736.59 2978.28,733.48"/>
    </edge>
    <edge id=":138789034#1-AddedOnRampNode_0" function="internal">
        <lane id=":138789034#1-AddedOnRampNode_0_0" index="0" disallow="tram rail_urban rail rail_electric rail_fast ship" speed="27.78" length="8.00" shape="2807.42,627.34 2814.79,630.47"/>
        <lane id=":138789034#1-AddedOnRampNode_0_1" index="1" disallow="tram rail_urban rail rail_electric rail_fast ship" speed="27.78" length="8.00" shape="2806.17,630.29 2813.54,633.41"/>
    </edge>
    <edge id=":1544870538_0" function="internal">
        <lane id=":1544870538_0_0" index="0" disallow="tram rail_urban rail rail_electric rail_fast ship" speed="27.78" length="5.12" shape="3393.69,1017.77 3392.71,1012.77"/>
        <lane id=":1544870538_0_1" index="1" disallow="tram rail_urban rail rail_electric rail_fast ship" speed="27.78" length="5.12" shape="3396.83,1017.16 3395.84,1012.14"/>
        <lane id=":1544870538_0_2" index="2" disallow="tram rail_urban rail rail_electric rail_fast ship" speed="27.78" length="5.12" shape="3399.97,1016.56 3398.98,1011.51"/>
    </edge>
    <edge id=":1548095603_0" function="internal">
        <lane id=":1548095603_0_0" index="0" allow="pedestrian delivery bicycle" speed="5.56" length="5.00" shape="3149.84,1093.91 3145.09,1095.50"/>
    </edge>
    <edge id=":1548095603_1" function="internal">
        <lane id=":1548095603_1_0" index="0" allow="pedestrian delivery bicycle" speed="3.65" length="2.34" shape="3149.84,1093.91 3148.44,1093.53 3147.81,1092.90"/>
    </edge>
    <edge id=":1548095603_4" function="internal">
        <lane id=":1548095603_4_0" index="0" allow="pedestrian delivery bicycle" speed="3.65" length="2.34" shape="3147.81,1092.90 3147.94,1092.02 3148.82,1090.88"/>
    </edge>
    <edge id=":1548095603_2" function="internal">
        <lane id=":1548095603_2_0" index="0" allow="pedestrian delivery bicycle" speed="5.56" length="5.00" shape="3144.08,1092.46 3148.82,1090.88"/>
    </edge>
    <edge id=":1548095603_3" function="internal">