<?xml version="1.0" encoding="UTF-8"?>

<!-- generated on Thu Dec  5 22:17:24 2019 by Eclipse SUMO netedit Version 1.3.1
<configuration xmlns:xsi="http://www.w3.org/2001/XMLSchema-instance" xsi:noNamespaceSchemaLocation="http://sumo.dlr.de/xsd/netconvertConfiguration.xsd">

    <input>
        <sumo-net-file value="/Users/noyman/GIT/CS_SUMOscope/data/net.net.xml"/>
    </input>

    <output>
        <output-file value="/Users/noyman/GIT/CS_SUMOscope/data/net.net.xml"/>
    </output>

    <processing>
        <geometry.max-grade.fix value="false"/>
        <offset.disable-normalization value="true"/>
        <opposites.guess.fix-lengths value="true"/>
        <lefthand value="false"/>
    </processing>

    <junctions>
        <no-turnarounds value="true"/>
        <junctions.corner-detail value="5"/>
        <junctions.limit-turn-speed value="5.5"/>
        <rectangular-lane-cut value="false"/>
    </junctions>

    <pedestrian>
        <walkingareas value="false"/>
    </pedestrian>

</configuration>
-->

<net version="1.3" junctionCornerDetail="5" limitTurnSpeed="5.50" xmlns:xsi="http://www.w3.org/2001/XMLSchema-instance" xsi:noNamespaceSchemaLocation="http://sumo.dlr.de/xsd/net_file.xsd">

    <location netOffset="-565294.75,-5930829.92" convBoundary="0.00,0.00,3836.73,2848.98" origBoundary="9.913090,53.450981,10.085598,53.549920" projParameter="+proj=utm +zone=32 +ellps=WGS84 +datum=WGS84 +units=m +no_defs"/>

    <type id="highway.bridleway" priority="1" numLanes="1" speed="2.78" allow="pedestrian" oneway="1" width="2.00"/>
    <type id="highway.bus_guideway" priority="1" numLanes="1" speed="27.78" allow="bus" oneway="1"/>
    <type id="highway.cycleway" priority="1" numLanes="1" speed="8.33" allow="bicycle" oneway="0" width="1.00"/>
    <type id="highway.footway" priority="1" numLanes="1" speed="2.78" allow="pedestrian" oneway="1" width="2.00"/>
    <type id="highway.ford" priority="1" numLanes="1" speed="2.78" allow="army" oneway="0"/>
    <type id="highway.living_street" priority="2" numLanes="1" speed="2.78" disallow="tram rail_urban rail rail_electric rail_fast ship" oneway="0"/>
    <type id="highway.motorway" priority="14" numLanes="2" speed="39.44" allow="private emergency authority army vip passenger hov taxi bus coach delivery truck trailer motorcycle evehicle custom1 custom2" oneway="1"/>
    <type id="highway.motorway_link" priority="9" numLanes="1" speed="22.22" allow="private emergency authority army vip passenger hov taxi bus coach delivery truck trailer motorcycle evehicle custom1 custom2" oneway="1"/>
    <type id="highway.path" priority="1" numLanes="1" speed="2.78" allow="pedestrian bicycle" oneway="1" width="2.00"/>
    <type id="highway.pedestrian" priority="1" numLanes="1" speed="2.78" allow="pedestrian" oneway="1" width="2.00"/>
    <type id="highway.primary" priority="12" numLanes="2" speed="27.78" disallow="tram rail_urban rail rail_electric rail_fast ship" oneway="0"/>
    <type id="highway.primary_link" priority="7" numLanes="1" speed="22.22" disallow="tram rail_urban rail rail_electric rail_fast ship" oneway="0"/>
    <type id="highway.raceway" priority="15" numLanes="2" speed="83.33" allow="vip" oneway="0"/>
    <type id="highway.residential" priority="3" numLanes="1" speed="13.89" disallow="tram rail_urban rail rail_electric rail_fast ship" oneway="0"/>
    <type id="highway.secondary" priority="11" numLanes="2" speed="27.78" disallow="tram rail_urban rail rail_electric rail_fast ship" oneway="0"/>
    <type id="highway.secondary_link" priority="6" numLanes="1" speed="22.22" disallow="tram rail_urban rail rail_electric rail_fast ship" oneway="0"/>
    <type id="highway.service" priority="1" numLanes="1" speed="5.56" allow="pedestrian delivery bicycle" oneway="0"/>
    <type id="highway.stairs" priority="1" numLanes="1" speed="1.39" allow="pedestrian" oneway="1" width="2.00"/>
    <type id="highway.step" priority="1" numLanes="1" speed="1.39" allow="pedestrian" oneway="1" width="2.00"/>
    <type id="highway.steps" priority="1" numLanes="1" speed="1.39" allow="pedestrian" oneway="1" width="2.00"/>
    <type id="highway.tertiary" priority="10" numLanes="1" speed="22.22" disallow="tram rail_urban rail rail_electric rail_fast ship" oneway="0"/>
    <type id="highway.tertiary_link" priority="5" numLanes="1" speed="22.22" disallow="tram rail_urban rail rail_electric rail_fast ship" oneway="0"/>
    <type id="highway.track" priority="1" numLanes="1" speed="5.56" disallow="tram rail_urban rail rail_electric rail_fast ship" oneway="0"/>
    <type id="highway.trunk" priority="13" numLanes="2" speed="27.78" disallow="pedestrian bicycle tram rail_urban rail rail_electric rail_fast ship" oneway="0"/>
    <type id="highway.trunk_link" priority="8" numLanes="1" speed="22.22" disallow="pedestrian bicycle tram rail_urban rail rail_electric rail_fast ship" oneway="0"/>
    <type id="highway.unclassified" priority="4" numLanes="1" speed="13.89" disallow="tram rail_urban rail rail_electric rail_fast ship" oneway="0"/>
    <type id="highway.unsurfaced" priority="1" numLanes="1" speed="8.33" disallow="tram rail_urban rail rail_electric rail_fast ship" oneway="0"/>
    <type id="railway.highspeed" priority="21" numLanes="1" speed="69.44" allow="rail_fast" oneway="1"/>
    <type id="railway.light_rail" priority="19" numLanes="1" speed="27.78" allow="rail_urban" oneway="1"/>
    <type id="railway.preserved" priority="16" numLanes="1" speed="27.78" allow="rail" oneway="1"/>
    <type id="railway.rail" priority="20" numLanes="1" speed="44.44" allow="rail" oneway="1"/>
    <type id="railway.subway" priority="18" numLanes="1" speed="27.78" allow="rail_urban" oneway="1"/>
    <type id="railway.tram" priority="17" numLanes="1" speed="13.89" allow="tram" oneway="1"/>

    <edge id=":10690078_0" function="internal">
        <lane id=":10690078_0_0" index="0" disallow="tram rail_urban rail rail_electric rail_fast ship" speed="3.65" length="4.67" shape="2446.05,2661.90 2445.50,2663.24 2444.80,2663.79 2443.94,2663.56 2442.91,2662.54"/>
    </edge>
    <edge id=":10695194_0" function="internal">
        <lane id=":10695194_0_0" index="0" disallow="tram rail_urban rail rail_electric rail_fast ship" speed="13.89" length="0.20" shape="2363.55,1061.48 2363.45,1061.31"/>
    </edge>
    <edge id=":10695194_1" function="internal">
        <lane id=":10695194_1_0" index="0" disallow="tram rail_urban rail rail_electric rail_fast ship" speed="13.89" length="0.44" shape="2369.00,1057.95 2369.06,1058.09 2369.08,1058.20 2369.12,1058.30 2369.18,1058.44"/>
        <lane id=":10695194_1_1" index="1" disallow="tram rail_urban rail rail_electric rail_fast ship" speed="13.89" length="0.44" shape="2366.23,1059.62 2366.27,1059.72 2366.29,1059.79 2366.32,1059.86 2366.37,1059.96"/>
    </edge>
    <edge id=":10695381_0" function="internal">
        <lane id=":10695381_0_0" index="0" disallow="pedestrian bicycle tram rail_urban rail rail_electric rail_fast ship" speed="14.13" length="12.33" shape="2788.96,1283.26 2789.28,1280.04 2789.27,1277.42 2788.63,1274.75 2787.01,1271.39"/>
    </edge>
    <edge id=":10695381_1" function="internal">
        <lane id=":10695381_1_0" index="0" disallow="pedestrian bicycle tram rail_urban rail rail_electric rail_fast ship" speed="16.67" length="12.87" shape="2794.02,1281.81 2792.56,1278.34 2791.98,1275.78 2791.36,1273.24 2789.80,1269.82"/>
        <lane id=":10695381_1_1" index="1" disallow="pedestrian bicycle tram rail_urban rail rail_electric rail_fast ship" speed="16.67" length="12.87" shape="2796.86,1280.33 2795.38,1276.83 2794.79,1274.25 2794.16,1271.69 2792.59,1268.25"/>
        <lane id=":10695381_1_2" index="2" disallow="pedestrian bicycle tram rail_urban rail rail_electric rail_fast ship" speed="16.67" length="12.87" shape="2799.70,1278.85 2798.21,1275.32 2797.60,1272.73 2796.97,1270.15 2795.38,1266.68"/>
    </edge>
    <edge id=":10695384_0" function="internal">
        <lane id=":10695384_0_0" index="0" disallow="pedestrian bicycle tram rail_urban rail rail_electric rail_fast ship" speed="19.45" length="10.57" shape="3070.47,1977.53 3069.35,1974.56 3068.68,1972.46 3068.15,1970.36 3067.46,1967.42"/>
    </edge>
    <edge id=":10695384_1" function="internal">
        <lane id=":10695384_1_0" index="0" disallow="pedestrian bicycle tram rail_urban rail rail_electric rail_fast ship" speed="16.67" length="9.26" shape="3073.45,1976.37 3069.71,1966.90"/>
        <lane id=":10695384_1_1" index="1" disallow="pedestrian bicycle tram rail_urban rail rail_electric rail_fast ship" speed="16.67" length="9.26" shape="3076.43,1975.21 3072.86,1966.16"/>
        <lane id=":10695384_1_2" index="2" disallow="pedestrian bicycle tram rail_urban rail rail_electric rail_fast ship" speed="16.67" length="9.26" shape="3079.41,1974.05 3076.02,1965.43"/>
        <lane id=":10695384_1_3" index="3" disallow="pedestrian bicycle tram rail_urban rail rail_electric rail_fast ship" speed="16.67" length="9.26" shape="3082.39,1972.88 3079.17,1964.70"/>
        <lane id=":10695384_1_4" index="4" disallow="pedestrian bicycle tram rail_urban rail rail_electric rail_fast ship" speed="16.67" length="9.26" shape="3085.37,1971.72 3082.32,1963.96"/>
    </edge>
    <edge id=":10695385_0" function="internal">
        <lane id=":10695385_0_0" index="0" disallow="tram rail_urban rail rail_electric rail_fast ship" speed="16.67" length="36.53" shape="3165.31,2158.99 3163.77,2148.45 3162.45,2141.22 3160.16,2134.30 3155.71,2124.68"/>
        <lane id=":10695385_0_1" index="1" disallow="tram rail_urban rail rail_electric rail_fast ship" speed="16.67" length="36.53" shape="3168.38,2157.95 3166.81,2147.29 3165.45,2139.98 3163.10,2132.99 3158.58,2123.26"/>
        <lane id=":10695385_0_2" index="2" disallow="tram rail_urban rail rail_electric rail_fast ship" speed="16.67" length="36.53" shape="3171.46,2156.91 3169.86,2146.13 3168.44,2138.75 3166.03,2131.68 3161.44,2121.84"/>
        <lane id=":10695385_0_3" index="3" disallow="tram rail_urban rail rail_electric rail_fast ship" speed="16.67" length="36.53" shape="3174.54,2155.87 3172.90,2144.96 3171.44,2137.51 3168.97,2130.37 3164.31,2120.42"/>
    </edge>
    <edge id=":10695385_4" function="internal">
        <lane id=":10695385_4_0" index="0" disallow="tram rail_urban rail rail_electric rail_fast ship" speed="15.28" length="36.16" shape="3178.10,2154.01 3170.61,2145.91 3165.40,2140.35 3160.95,2134.29 3155.71,2124.68"/>
        <lane id=":10695385_4_1" index="1" disallow="tram rail_urban rail rail_electric rail_fast ship" speed="15.28" length="36.16" shape="3180.64,2152.04 3173.27,2144.09 3168.13,2138.64 3163.73,2132.70 3158.58,2123.26"/>
        <lane id=":10695385_4_2" index="2" disallow="tram rail_urban rail rail_electric rail_fast ship" speed="15.28" length="36.16" shape="3183.17,2150.08 3175.92,2142.27 3170.86,2136.93 3166.52,2131.11 3161.44,2121.84"/>
        <lane id=":10695385_4_3" index="3" disallow="tram rail_urban rail rail_electric rail_fast ship" speed="15.28" length="36.16" shape="3185.71,2148.11 3178.58,2140.45 3173.58,2135.22 3169.30,2129.52 3164.31,2120.42"/>
    </edge>
    <edge id=":1088914563_0" function="internal">
        <lane id=":1088914563_0_0" index="0" disallow="tram rail_urban rail rail_electric rail_fast ship" speed="16.67" length="8.21" shape="3167.58,2032.73 3168.61,2034.91 3169.66,2036.24 3170.71,2037.57 3171.75,2039.75"/>
        <lane id=":1088914563_0_1" index="1" disallow="tram rail_urban rail rail_electric rail_fast ship" speed="16.67" length="8.21" shape="3167.58,2032.73 3168.14,2035.08 3168.15,2036.77 3168.17,2038.47 3168.73,2040.81"/>
        <lane id=":1088914563_0_2" index="2" disallow="tram rail_urban rail rail_electric rail_fast ship" speed="16.67" length="8.21" shape="3164.56,2033.80 3165.12,2036.14 3165.13,2037.84 3165.15,2039.53 3165.71,2041.87"/>
        <lane id=":1088914563_0_3" index="3" disallow="tram rail_urban rail rail_electric rail_fast ship" speed="16.67" length="8.21" shape="3161.54,2034.86 3162.10,2037.21 3162.12,2038.90 3162.13,2040.59 3162.69,2042.94"/>
    </edge>
    <edge id=":1109638127_0" function="internal">
        <lane id=":1109638127_0_0" index="0" disallow="tram rail_urban rail rail_electric rail_fast ship" speed="13.89" length="13.70" shape="2432.89,2428.09 2431.20,2431.82 2428.83,2434.00 2426.32,2435.78 2424.23,2438.34"/>
    </edge>
    <edge id=":1109638127_1" function="internal">
        <lane id=":1109638127_1_0" index="0" disallow="tram rail_urban rail rail_electric rail_fast ship" speed="13.89" length="10.88" shape="2421.38,2436.89 2422.67,2434.18 2423.34,2432.18 2423.72,2430.05 2424.09,2426.98"/>
        <lane id=":1109638127_1_1" index="1" disallow="tram rail_urban rail rail_electric rail_fast ship" speed="13.89" length="10.88" shape="2421.38,2436.89 2423.16,2434.31 2424.91,2432.55 2426.37,2430.58 2427.27,2427.38"/>
    </edge>
    <edge id=":11206076_0" function="internal">
        <lane id=":11206076_0_0" index="0" disallow="tram rail_urban rail rail_electric rail_fast ship" speed="3.65" length="4.67" shape="2550.71,2729.32 2549.47,2730.06 2548.58,2730.07 2548.03,2729.37 2547.83,2727.94"/>
    </edge>
    <edge id=":11206316_0" function="internal">
        <lane id=":11206316_0_0" index="0" disallow="tram rail_urban rail rail_electric rail_fast ship" speed="16.67" length="8.58" shape="2508.14,2331.62 2510.28,2330.25 2511.36,2328.67 2512.45,2327.11 2514.62,2325.81"/>
        <lane id=":11206316_0_1" index="1" disallow="tram rail_urban rail rail_electric rail_fast ship" speed="16.67" length="8.58" shape="2509.29,2334.60 2511.41,2333.25 2512.47,2331.67 2513.54,2330.12 2515.69,2328.83"/>
        <lane id=":11206316_0_2" index="2" disallow="tram rail_urban rail rail_electric rail_fast ship" speed="16.67" length="8.58" shape="2510.44,2337.59 2512.54,2336.24 2513.58,2334.67 2514.63,2333.13 2516.75,2331.85"/>
        <lane id=":11206316_0_3" index="3" disallow="tram rail_urban rail rail_electric rail_fast ship" speed="16.67" length="8.58" shape="2510.44,2337.59 2517.82,2334.86"/>
        <lane id=":11206316_0_4" index="4" disallow="tram rail_urban rail rail_electric rail_fast ship" speed="16.67" length="8.58" shape="2510.44,2337.59 2512.86,2337.19 2514.65,2337.69 2516.44,2338.21 2518.88,2337.88"/>
    </edge>
    <edge id=":122317_0" function="internal">
        <lane id=":122317_0_0" index="0" disallow="pedestrian bicycle tram rail_urban rail rail_electric rail_fast ship" speed="19.45" length="3.22" shape="2542.76,692.60 2539.82,693.88"/>
        <lane id=":122317_0_1" index="1" disallow="pedestrian bicycle tram rail_urban rail rail_electric rail_fast ship" speed="19.45" length="3.22" shape="2539.72,693.59 2536.81,694.95"/>
        <lane id=":122317_0_2" index="2" disallow="pedestrian bicycle tram rail_urban rail rail_electric rail_fast ship" speed="19.45" length="3.22" shape="2536.68,694.59 2533.79,696.03"/>
        <lane id=":122317_0_3" index="3" disallow="pedestrian bicycle tram rail_urban rail rail_electric rail_fast ship" speed="19.45" length="3.22" shape="2533.64,695.58 2530.78,697.10"/>
    </edge>
    <edge id=":122329_0" function="internal">
        <lane id=":122329_0_0" index="0" disallow="pedestrian bicycle tram rail_urban rail rail_electric rail_fast ship" speed="19.45" length="11.57" shape="3041.22,1721.34 3042.60,1724.48 3043.38,1726.69 3043.99,1728.97 3044.81,1732.31"/>
    </edge>
    <edge id=":122329_1" function="internal">
        <lane id=":122329_1_0" index="0" disallow="pedestrian bicycle tram rail_urban rail rail_electric rail_fast ship" speed="19.45" length="10.96" shape="3038.31,1722.68 3039.61,1725.65 3040.36,1727.75 3040.92,1729.91 3041.71,1733.07"/>
    </edge>
    <edge id=":122329_2" function="internal">
        <lane id=":122329_2_0" index="0" disallow="pedestrian bicycle tram rail_urban rail rail_electric rail_fast ship" speed="16.67" length="9.61" shape="3035.40,1724.01 3039.96,1733.50"/>
        <lane id=":122329_2_1" index="1" disallow="pedestrian bicycle tram rail_urban rail rail_electric rail_fast ship" speed="16.67" length="9.61" shape="3032.50,1725.34 3036.78,1734.29"/>
        <lane id=":122329_2_2" index="2" disallow="pedestrian bicycle tram rail_urban rail rail_electric rail_fast ship" speed="16.67" length="9.61" shape="3029.59,1726.68 3033.59,1735.07"/>
        <lane id=":122329_2_3" index="3" disallow="pedestrian bicycle tram rail_urban rail rail_electric rail_fast ship" speed="16.67" length="9.61" shape="3026.68,1728.01 3030.41,1735.86"/>
    </edge>
    <edge id=":1275947915_0" function="internal">
        <lane id=":1275947915_0_0" index="0" disallow="tram rail_urban rail rail_electric rail_fast ship" speed="13.89" length="9.49" shape="1129.00,2619.32 1121.97,2612.95"/>
    </edge>
    <edge id=":1275947915_1" function="internal">
        <lane id=":1275947915_1_0" index="0" disallow="tram rail_urban rail rail_electric rail_fast ship" speed="6.36" length="9.04" shape="1122.08,2620.74 1123.62,2618.77 1124.11,2616.82 1123.56,2614.88 1121.97,2612.95"/>
    </edge>
    <edge id=":1341674449_0" function="internal">
        <lane id=":1341674449_0_0" index="0" disallow="tram rail_urban rail rail_electric rail_fast ship" speed="15.28" length="0.87" shape="2421.24,2370.96 2421.25,2370.75 2421.31,2370.55 2421.44,2370.39 2421.63,2370.24"/>
    </edge>
    <edge id=":1341674449_1" function="internal">
        <lane id=":1341674449_1_0" index="0" disallow="tram rail_urban rail rail_electric rail_fast ship" speed="4.74" length="2.79" shape="2424.42,2370.59 2424.40,2371.34 2424.21,2371.99 2423.84,2372.54 2423.29,2372.97"/>
    </edge>
    <edge id=":1341674449_2" function="internal">
        <lane id=":1341674449_2_0" index="0" disallow="tram rail_urban rail rail_electric rail_fast ship" speed="16.67" length="5.23" shape="2425.01,2366.27 2421.63,2370.24"/>
        <lane id=":1341674449_2_1" index="1" disallow="tram rail_urban rail rail_electric rail_fast ship" speed="16.67" length="5.23" shape="2426.69,2368.99 2423.29,2372.97"/>
        <lane id=":1341674449_2_2" index="2" disallow="tram rail_urban rail rail_electric rail_fast ship" speed="16.67" length="5.23" shape="2428.37,2371.72 2424.96,2375.71"/>
    </edge>
    <edge id=":1423129451_0" function="internal">
        <lane id=":1423129451_0_0" index="0" disallow="pedestrian bicycle tram rail_urban rail rail_electric rail_fast ship" speed="8.33" length="8.06" shape="3209.67,1719.85 3208.98,1722.07 3208.90,1723.71 3208.85,1725.35 3208.27,1727.62"/>
        <lane id=":1423129451_0_1" index="1" disallow="pedestrian bicycle tram rail_urban rail rail_electric rail_fast ship" speed="8.33" length="8.06" shape="3209.67,1719.85 3208.51,1721.91 3207.40,1723.15 3206.32,1724.40 3205.27,1726.50"/>
        <lane id=":1423129451_0_2" index="2" disallow="pedestrian bicycle tram rail_urban rail rail_electric rail_fast ship" speed="8.33" length="8.06" shape="3206.73,1718.58 3205.55,1720.68 3204.43,1721.95 3203.34,1723.24 3202.27,1725.39"/>
    </edge>
    <edge id=":1423129453_0" function="internal">
        <lane id=":1423129453_0_0" index="0" disallow="tram rail_urban rail rail_electric rail_fast ship" speed="18.05" length="8.19" shape="3205.36,1679.30 3210.90,1673.27"/>
    </edge>
    <edge id=":1423129453_1" function="internal">
        <lane id=":1423129453_1_0" index="0" disallow="tram rail_urban rail rail_electric rail_fast ship" speed="13.89" length="7.77" shape="3208.00,1681.46 3213.24,1675.45"/>
        <lane id=":1423129453_1_1" index="1" disallow="tram rail_urban rail rail_electric rail_fast ship" speed="13.89" length="7.77" shape="3210.48,1683.48 3215.58,1677.63"/>
        <lane id=":1423129453_1_2" index="2" disallow="tram rail_urban rail rail_electric rail_fast ship" speed="13.89" length="7.77" shape="3212.96,1685.51 3217.93,1679.81"/>
    </edge>
    <edge id=":1423129457_0" function="internal">
        <lane id=":1423129457_0_0" index="0" disallow="pedestrian bicycle tram rail_urban rail rail_electric rail_fast ship" speed="11.11" length="22.44" shape="3221.04,1696.84 3216.76,1701.97 3214.63,1706.26 3213.21,1710.78 3211.07,1716.63"/>
    </edge>
    <edge id=":1423129457_1" function="internal">
        <lane id=":1423129457_1_0" index="0" disallow="pedestrian bicycle tram rail_urban rail rail_electric rail_fast ship" speed="11.11" length="23.68" shape="3218.76,1694.59 3214.19,1700.07 3211.84,1704.69 3210.29,1709.47 3208.10,1715.42"/>
    </edge>
    <edge id=":1423129457_2" function="internal">
        <lane id=":1423129457_2_0" index="0" disallow="tram rail_urban rail rail_electric rail_fast ship" speed="13.89" length="23.49" shape="3218.76,1694.59 3213.96,1699.92 3210.92,1704.10 3208.25,1708.16 3204.50,1713.16"/>
        <lane id=":1423129457_2_1" index="1" disallow="tram rail_urban rail rail_electric rail_fast ship" speed="13.89" length="23.49" shape="3216.48,1692.35 3211.65,1697.70 3208.59,1701.90 3205.90,1705.98 3202.15,1710.98"/>
    </edge>
    <edge id=":1426647213_0" function="internal">
        <lane id=":1426647213_0_0" index="0" disallow="tram rail_urban rail rail_electric rail_fast ship" speed="20.84" length="0.16" shape="2523.29,1367.22 2523.23,1367.13"/>
        <lane id=":1426647213_0_1" index="1" disallow="tram rail_urban rail rail_electric rail_fast ship" speed="20.84" length="0.16" shape="2526.15,1365.80 2526.06,1365.62"/>
    </edge>
    <edge id=":1426647213_2" function="internal">
        <lane id=":1426647213_2_0" index="0" disallow="tram rail_urban rail rail_electric rail_fast ship" speed="20.84" length="0.35" shape="2531.71,1362.61 2531.89,1362.96"/>
        <lane id=":1426647213_2_1" index="1" disallow="tram rail_urban rail rail_electric rail_fast ship" speed="20.84" length="0.35" shape="2528.88,1364.11 2529.02,1364.38"/>
    </edge>
    <edge id=":14469667_0" function="internal">
        <lane id=":14469667_0_0" index="0" disallow="tram rail_urban rail rail_electric rail_fast ship" speed="7.24" length="11.67" shape="2603.33,2638.80 2599.72,2637.46 2596.81,2637.23 2594.60,2638.13 2593.10,2640.14"/>
    </edge>
    <edge id=":14469667_1" function="internal">
        <lane id=":14469667_1_0" index="0" disallow="tram rail_urban rail rail_electric rail_fast ship" speed="13.89" length="20.75" shape="2603.33,2638.80 2584.58,2629.91"/>
    </edge>
    <edge id=":14469667_2" function="internal">
        <lane id=":14469667_2_0" index="0" disallow="tram rail_urban rail rail_electric rail_fast ship" speed="8.65" length="16.91" shape="2603.33,2638.80 2598.82,2636.02 2596.17,2632.90 2595.36,2629.43 2596.40,2625.62"/>
    </edge>
    <edge id=":14469667_3" function="internal">
        <lane id=":14469667_3_0" index="0" disallow="tram rail_urban rail rail_electric rail_fast ship" speed="3.65" length="4.67" shape="2603.33,2638.80 2602.60,2637.56 2602.58,2636.67 2603.29,2636.12 2604.72,2635.92"/>
    </edge>
    <edge id=":14469667_4" function="internal">
        <lane id=":14469667_4_0" index="0" disallow="tram rail_urban rail rail_electric rail_fast ship" speed="6.49" length="9.03" shape="2602.14,2628.45 2601.37,2630.80 2601.54,2632.83 2602.66,2634.54 2604.72,2635.92"/>
    </edge>
    <edge id=":14469667_5" function="internal">
        <lane id=":14469667_5_0" index="0" disallow="tram rail_urban rail rail_electric rail_fast ship" speed="13.89" length="14.86" shape="2602.14,2628.45 2599.63,2632.43 2597.16,2635.07 2594.91,2637.32 2593.10,2640.14"/>
    </edge>
    <edge id=":14469667_6" function="internal">
        <lane id=":14469667_6_0" index="0" disallow="tram rail_urban rail rail_electric rail_fast ship" speed="8.74" length="5.18" shape="2599.27,2627.03 2596.89,2630.18 2595.77,2630.71"/>
    </edge>
    <edge id=":14469667_7" function="internal">
        <lane id=":14469667_7_0" index="0" disallow="tram rail_urban rail rail_electric rail_fast ship" speed="3.65" length="2.34" shape="2599.27,2627.03 2598.02,2627.75 2597.13,2627.76"/>
    </edge>
    <edge id=":14469667_16" function="internal">
        <lane id=":14469667_16_0" index="0" disallow="tram rail_urban rail rail_electric rail_fast ship" speed="8.74" length="11.70" shape="2595.77,2630.71 2593.64,2631.71 2589.54,2631.62 2584.58,2629.91"/>
    </edge>
    <edge id=":14469667_17" function="internal">
        <lane id=":14469667_17_0" index="0" disallow="tram rail_urban rail rail_electric rail_fast ship" speed="3.65" length="2.34" shape="2597.13,2627.76 2596.59,2627.05 2596.40,2625.62"/>
    </edge>
    <edge id=":14469667_8" function="internal">
        <lane id=":14469667_8_0" index="0" disallow="tram rail_urban rail rail_electric rail_fast ship" speed="6.60" length="9.19" shape="2585.94,2627.01 2588.30,2627.72 2590.36,2627.49 2592.10,2626.31 2593.53,2624.20"/>
    </edge>
    <edge id=":14469667_9" function="internal">
        <lane id=":14469667_9_0" index="0" disallow="tram rail_urban rail rail_electric rail_fast ship" speed="13.89" length="20.79" shape="2585.94,2627.01 2604.72,2635.92"/>
    </edge>
    <edge id=":14469667_10" function="internal">
        <lane id=":14469667_10_0" index="0" disallow="tram rail_urban rail rail_electric rail_fast ship" speed="8.73" length="16.89" shape="2585.94,2627.01 2590.43,2629.72 2593.12,2632.82 2594.01,2636.29 2593.10,2640.14"/>
    </edge>
    <edge id=":14469667_11" function="internal">
        <lane id=":14469667_11_0" index="0" disallow="tram rail_urban rail rail_electric rail_fast ship" speed="3.65" length="4.67" shape="2585.94,2627.01 2586.68,2628.24 2586.71,2629.14 2586.01,2629.69 2584.58,2629.91"/>
    </edge>
    <edge id=":14469667_12" function="internal">
        <lane id=":14469667_12_0" index="0" disallow="tram rail_urban rail rail_electric rail_fast ship" speed="7.40" length="11.82" shape="2590.18,2638.83 2590.71,2636.32 2589.95,2634.00 2587.91,2631.86 2584.58,2629.91"/>
    </edge>
    <edge id=":14469667_13" function="internal">
        <lane id=":14469667_13_0" index="0" disallow="tram rail_urban rail rail_electric rail_fast ship" speed="13.89" length="14.61" shape="2590.18,2638.83 2596.40,2625.62"/>
    </edge>
    <edge id=":14469667_14" function="internal">
        <lane id=":14469667_14_0" index="0" disallow="tram rail_urban rail rail_electric rail_fast ship" speed="8.60" length="7.79" shape="2590.18,2638.83 2592.46,2635.60 2595.64,2634.03 2595.93,2634.04"/>
    </edge>
    <edge id=":14469667_15" function="internal">
        <lane id=":14469667_15_0" index="0" disallow="tram rail_urban rail rail_electric rail_fast ship" speed="3.65" length="2.57" shape="2590.18,2638.83 2591.40,2638.07 2592.29,2638.03 2592.44,2638.21"/>
    </edge>
    <edge id=":14469667_18" function="internal">
        <lane id=":14469667_18_0" index="0" disallow="tram rail_urban rail rail_electric rail_fast ship" speed="8.60" length="9.10" shape="2595.93,2634.04 2599.73,2634.14 2604.72,2635.92"/>
    </edge>
    <edge id=":14469667_19" function="internal">
        <lane id=":14469667_19_0" index="0" disallow="tram rail_urban rail rail_electric rail_fast ship" speed="3.65" length="2.10" shape="2592.44,2638.21 2592.86,2638.72 2593.10,2640.14"/>
    </edge>
    <edge id=":1448942228_0" function="internal">
        <lane id=":1448942228_0_0" index="0" disallow="tram rail_urban rail rail_electric rail_fast ship" speed="3.65" length="4.67" shape="2748.80,2705.15 2749.54,2706.39 2749.55,2707.28 2748.85,2707.83 2747.42,2708.03"/>
    </edge>
    <edge id=":14958056_0" function="internal">
        <lane id=":14958056_0_0" index="0" disallow="tram rail_urban rail rail_electric rail_fast ship" speed="16.67" length="8.20" shape="2100.24,2558.31 2102.20,2556.93 2103.32,2555.67 2104.44,2554.41 2106.39,2553.01"/>
        <lane id=":14958056_0_1" index="1" disallow="tram rail_urban rail rail_electric rail_fast ship" speed="16.67" length="8.20" shape="2100.24,2558.31 2102.45,2557.36 2104.11,2557.06 2105.77,2556.76 2107.97,2555.79"/>
        <lane id=":14958056_0_2" index="2" disallow="tram rail_urban rail rail_electric rail_fast ship" speed="16.67" length="8.20" shape="2101.80,2561.10 2104.01,2560.16 2105.68,2559.85 2107.35,2559.54 2109.56,2558.57"/>
        <lane id=":14958056_0_3" index="3" disallow="tram rail_urban rail rail_electric rail_fast ship" speed="16.67" length="8.20" shape="2103.35,2563.90 2105.58,2562.95 2107.25,2562.64 2108.92,2562.33 2111.14,2561.36"/>
    </edge>
    <edge id=":1531833140_0" function="internal">
        <lane id=":1531833140_0_0" index="0" disallow="tram rail_urban rail rail_electric rail_fast ship" speed="6.51" length="8.90" shape="3215.19,1621.52 3213.22,1620.10 3211.26,1619.64 3209.30,1620.13 3207.35,1621.59"/>
    </edge>
    <edge id=":1531833140_1" function="internal">
        <lane id=":1531833140_1_0" index="0" disallow="tram rail_urban rail rail_electric rail_fast ship" speed="8.33" length="10.97" shape="3215.19,1621.52 3207.38,1613.82"/>
    </edge>
    <edge id=":1546381376_0" function="internal">
        <lane id=":1546381376_0_0" index="0" disallow="tram rail_urban rail rail_electric rail_fast ship" speed="6.51" length="9.04" shape="3148.27,1560.63 3146.16,1559.35 3144.13,1559.06 3142.21,1559.75 3140.39,1561.44"/>
    </edge>
    <edge id=":1546381376_1" function="internal">
        <lane id=":1546381376_1_0" index="0" disallow="tram rail_urban rail rail_electric rail_fast ship" speed="8.33" length="14.41" shape="3148.27,1560.63 3137.09,1551.55"/>
    </edge>
    <edge id=":1546381376_2" function="internal">
        <lane id=":1546381376_2_0" index="0" disallow="tram rail_urban rail rail_electric rail_fast ship" speed="6.49" length="9.03" shape="3137.91,1559.41 3139.19,1557.29 3139.48,1555.27 3138.78,1553.36 3137.09,1551.55"/>
    </edge>
    <edge id=":1546381376_3" function="internal">
        <lane id=":1546381376_3_0" index="0" disallow="tram rail_urban rail rail_electric rail_fast ship" speed="3.65" length="4.67" shape="3137.91,1559.41 3139.29,1558.99 3140.16,1559.18 3140.53,1560.00 3140.39,1561.44"/>
    </edge>
    <edge id=":1554344698_0" function="internal">