<?xml version="1.0" encoding="UTF-8"?>

<!-- generated on Sat Nov 30 15:26:00 2019 by Eclipse SUMO netedit Version 1.3.1
<configuration xmlns:xsi="http://www.w3.org/2001/XMLSchema-instance" xsi:noNamespaceSchemaLocation="http://sumo.dlr.de/xsd/netconvertConfiguration.xsd">

    <input>
        <sumo-net-file value="/Users/noyman/Desktop/sumolympics/data/sumolympics.net.xml"/>
    </input>

    <output>
        <output-file value="/Users/noyman/Desktop/sumolympics/data/sumolympics.net.xml"/>
    </output>

    <processing>
        <geometry.max-grade.fix value="false"/>
        <offset.disable-normalization value="true"/>
        <opposites.guess.fix-lengths value="true"/>
        <lefthand value="false"/>
    </processing>

    <junctions>
        <no-turnarounds value="true"/>
        <junctions.corner-detail value="0"/>
        <junctions.limit-turn-speed value="-1"/>
        <rectangular-lane-cut value="false"/>
    </junctions>

    <pedestrian>
        <walkingareas value="false"/>
    </pedestrian>

</configuration>
-->

<net version="1.3" xmlns:xsi="http://www.w3.org/2001/XMLSchema-instance" xsi:noNamespaceSchemaLocation="http://sumo.dlr.de/xsd/net_file.xsd">

    <location netOffset="0.00,0.00" convBoundary="0.00,-20.61,1000.00,0.00" origBoundary="-10000000000.00,-10000000000.00,10000000000.00,10000000000.00" projParameter="!"/>

    <edge id=":gneJ2_0" function="internal">
        <lane id=":gneJ2_0_0" index="0" allow="bus" speed="13.89" length="3.75" shape="325.18,-34.79 326.46,-34.89 327.34,-34.97 328.22,-35.02 329.51,-35.00"/>
        <lane id=":gneJ2_0_1" index="1" allow="bicycle" speed="13.89" length="3.75" shape="325.38,-31.60 326.57,-31.69 327.39,-31.77 328.21,-31.82 329.41,-31.80"/>
        <lane id=":gneJ2_0_2" index="2" allow="pedestrian" speed="13.89" length="3.75" shape="325.58,-28.41 326.69,-28.50 327.44,-28.57 328.20,-28.62 329.32,-28.61"/>
        <lane id=":gneJ2_0_3" index="3" allow="passenger" speed="13.89" length="3.75" shape="325.78,-25.21 326.80,-25.30 327.50,-25.37 328.19,-25.41 329.22,-25.41"/>
        <lane id=":gneJ2_0_4" index="4" allow="rail_urban" speed="13.89" length="3.75" shape="325.98,-22.02 326.91,-22.10 327.55,-22.17 328.19,-22.21 329.12,-22.21"/>
    </edge>

    <edge id="beg" from="gneJ0" to="gneJ2" priority="1">
        <lane id="beg_0" index="0" allow="bus" speed="13.89" length="326.71" shape="-0.90,-14.37 325.18,-34.79"/>
        <lane id="beg_1" index="1" allow="bicycle" speed="13.89" length="326.71" shape="-0.70,-11.18 325.38,-31.60"/>
        <lane id="beg_2" index="2" allow="pedestrian" speed="13.89" length="326.71" shape="-0.50,-7.98 325.58,-28.41"/>
        <lane id="beg_3" index="3" allow="passenger" speed="13.89" length="326.71" shape="-0.30,-4.79 325.78,-25.21"/>
        <lane id="beg_4" index="4" allow="rail_urban" speed="13.89" length="326.71" shape="-0.10,-1.60 325.98,-22.02"/>
    </edge>
    <edge id="end" from="gneJ2" to="gneJ1" priority="1">
        <lane id="end_0" index="0" allow="bus" speed="13.89" length="671.25" shape="329.51,-35.00 1000.44,-14.39"/>
        <lane id="end_1" index="1" allow="bicycle" speed="13.89" length="671.25" shape="329.41,-31.80 1000.34,-11.19"/>
        <lane id="end_2" index="2" allow="pedestrian" speed="13.89" length="671.25" shape="329.32,-28.61 1000.25,-8.00"/>
        <lane id="end_3" index="3" allow="passenger" speed="13.89" length="671.25" shape="329.22,-25.41 1000.15,-4.80"/>
        <lane id="end_4" index="4" allow="rail_urban" speed="13.89" length="671.25" shape="329.12,-22.21 1000.05,-1.60"/>
    </edge>

    <tlLogic id="gneJ2" type="static" programID="0" offset="0">
        <phase duration="100" state="rrrrr"/>
        <phase duration="1000" state="GGGGG"/>
    </tlLogic>

    <junction id="gneJ0" type="dead_end" x="0.00" y="0.00" incLanes="" intLanes="" shape="0.00,0.00 -1.00,-15.97"/>
    <junction id="gneJ1" type="dead_end" x="1000.00" y="0.00" incLanes="end_0 end_1 end_2 end_3 end_4" intLanes="" shape="1000.49,-15.99 1000.00,0.00"/>
    <junction id="gneJ2" type="traffic_light" x="329.07" y="-20.61" incLanes="beg_0 beg_1 beg_2 beg_3 beg_4" intLanes=":gneJ2_0_0 :gneJ2_0_1 :gneJ2_0_2 :gneJ2_0_3 :gneJ2_0_4" shape="329.07,-20.61 329.56,-36.60 325.08,-36.39 326.08,-20.42">
        <request index="0" response="00000" foes="00000" cont="0"/>
        <request index="1" response="00000" foes="00000" cont="0"/>
        <request index="2" response="00000" foes="00000" cont="0"/>
        <request index="3" response="00000" foes="00000" cont="0"/>
        <request index="4" response="00000" foes="00000" cont="0"/>
    </junction>

    <connection from="beg" to="end" fromLane="0" toLane="0" via=":gneJ2_0_0" tl="gneJ2" linkIndex="0" dir="s" state="O"/>
    <connection from="beg" to="end" fromLane="1" toLane="1" via=":gneJ2_0_1" tl="gneJ2" linkIndex="1" dir="s" state="O"/>
    <connection from="beg" to="end" fromLane="2" toLane="2" via=":gneJ2_0_2" tl="gneJ2" linkIndex="2" dir="s" state="O"/>
    <connection from="beg" to="end" fromLane="3" toLane="3" via=":gneJ2_0_3" tl="gneJ2" linkIndex="3" dir="s" state="O"/>
    <connection from="beg" to="end" fromLane="4" toLane="4" via=":gneJ2_0_4" tl="gneJ2" linkIndex="4" dir="s" state="O"/>

    <connection from=":gneJ2_0" to="end" fromLane="0" toLane="0" dir="s" state="M"/>
    <connection from=":gneJ2_0" to="end" fromLane="1" toLane="1" dir="s" state="M"/>
    <connection from=":gneJ2_0" to="end" fromLane="2" toLane="2" dir="s" state="M"/>
    <connection from=":gneJ2_0" to="end" fromLane="3" toLane="3" dir="s" state="M"/>
    <connection from=":gneJ2_0" to="end" fromLane="4" toLane="4" dir="s" state="M"/>

</net>
