<routes>
    <person depart="0.000000" id="p0" departPos="-10.000000">
        <walk edges="beg end"/>
    </person>
    <person depart="0.000000" id="p1" departPos="-10.000000">
        <walk edges="beg end"/>
    </person>
    <person depart="0.000000" id="p2" departPos="-10.000000">
        <walk edges="beg end"/>
    </person>
    <person depart="0.000000" id="p3" departPos="-10.000000">
        <walk edges="beg end"/>
    </person>
    <person depart="0.000000" id="p4" departPos="-10.000000">
        <walk edges="beg end"/>
    </person>
    <person depart="0.000000" id="p5" departPos="-10.000000">
        <walk edges="beg end"/>
    </person>
    <person depart="0.000000" id="p6" departPos="-10.000000">
        <walk edges="beg end"/>
    </person>
    <person depart="0.000000" id="p7" departPos="-10.000000">
        <walk edges="beg end"/>
    </person>
    <person depart="0.000000" id="p8" departPos="-10.000000">
        <walk edges="beg end"/>
    </person>
    <person depart="0.000000" id="p9" departPos="-10.000000">
        <walk edges="beg end"/>
    </person>
    <person depart="0.000000" id="p10" departPos="-10.000000">
        <walk edges="beg end"/>
    </person>
    <person depart="0.000000" id="p11" departPos="-10.000000">
        <walk edges="beg end"/>
    </person>
    <person depart="0.000000" id="p12" departPos="-10.000000">
        <walk edges="beg end"/>
    </person>
    <person depart="0.000000" id="p13" departPos="-10.000000">
        <walk edges="beg end"/>
    </person>
    <person depart="0.000000" id="p14" departPos="-10.000000">
        <walk edges="beg end"/>
    </person>
    <person depart="0.000000" id="p15" departPos="-10.000000">
        <walk edges="beg end"/>
    </person>
    <person depart="0.000000" id="p16" departPos="-10.000000">
        <walk edges="beg end"/>
    </person>
    <person depart="0.000000" id="p17" departPos="-10.000000">
        <walk edges="beg end"/>
    </person>
    <person depart="0.000000" id="p18" departPos="-10.000000">
        <walk edges="beg end"/>
    </person>
    <person depart="0.000000" id="p19" departPos="-10.000000">
        <walk edges="beg end"/>
    </person>
    <person depart="0.000000" id="p20" departPos="-10.000000">
        <walk edges="beg end"/>
    </person>
    <person depart="0.000000" id="p21" departPos="-10.000000">
        <walk edges="beg end"/>
    </person>
    <person depart="0.000000" id="p22" departPos="-10.000000">
        <walk edges="beg end"/>
    </person>
    <person depart="0.000000" id="p23" departPos="-10.000000">
        <walk edges="beg end"/>
    </person>
    <person depart="0.000000" id="p24" departPos="-10.000000">
        <walk edges="beg end"/>
    </person>
    <person depart="0.000000" id="p25" departPos="-10.000000">
        <walk edges="beg end"/>
    </person>
    <person depart="0.000000" id="p26" departPos="-10.000000">
        <walk edges="beg end"/>
    </person>
    <person depart="0.000000" id="p27" departPos="-10.000000">
        <walk edges="beg end"/>
    </person>
    <person depart="0.000000" id="p28" departPos="-10.000000">
        <walk edges="beg end"/>
    </person>
    <person depart="0.000000" id="p29" departPos="-10.000000">
        <walk edges="beg end"/>
    </person>
    <person depart="0.000000" id="p30" departPos="-10.000000">
        <walk edges="beg end"/>
    </person>
    <person depart="0.000000" id="p31" departPos="-10.000000">
        <walk edges="beg end"/>
    </person>
    <person depart="0.000000" id="p32" departPos="-10.000000">
        <walk edges="beg end"/>
    </person>
    <person depart="0.000000" id="p33" departPos="-10.000000">
        <walk edges="beg end"/>
    </person>
    <person depart="0.000000" id="p34" departPos="-10.000000">
        <walk edges="beg end"/>
    </person>
    <person depart="0.000000" id="p35" departPos="-10.000000">
        <walk edges="beg end"/>
    </person>
    <person depart="0.000000" id="p36" departPos="-10.000000">
        <walk edges="beg end"/>
    </person>
    <person depart="0.000000" id="p37" departPos="-10.000000">
        <walk edges="beg end"/>
    </person>
    <person depart="0.000000" id="p38" departPos="-10.000000">
        <walk edges="beg end"/>
    </person>
    <person depart="0.000000" id="p39" departPos="-10.000000">
        <walk edges="beg end"/>
    </person>
    <person depart="0.000000" id="p40" departPos="-10.000000">
        <walk edges="beg end"/>
    </person>
    <person depart="0.000000" id="p41" departPos="-10.000000">
        <walk edges="beg end"/>
    </person>
    <person depart="0.000000" id="p42" departPos="-10.000000">
        <walk edges="beg end"/>
    </person>
    <person depart="0.000000" id="p43" departPos="-10.000000">
        <walk edges="beg end"/>
    </person>
    <person depart="0.000000" id="p44" departPos="-10.000000">
        <walk edges="beg end"/>
    </person>
    <person depart="0.000000" id="p45" departPos="-10.000000">
        <walk edges="beg end"/>
    </person>
    <person depart="0.000000" id="p46" departPos="-10.000000">
        <walk edges="beg end"/>
    </person>
    <person depart="0.000000" id="p47" departPos="-10.000000">
        <walk edges="beg end"/>
    </person>
    <person depart="0.000000" id="p48" departPos="-10.000000">
        <walk edges="beg end"/>
    </person>
    <person depart="0.000000" id="p49" departPos="-10.000000">
        <walk edges="beg end"/>
    </person>
    <person depart="0.000000" id="p50" departPos="-10.000000">
        <walk edges="beg end"/>
    </person>
    <person depart="0.000000" id="p51" departPos="-10.000000">
        <walk edges="beg end"/>
    </person>
    <person depart="0.000000" id="p52" departPos="-10.000000">
        <walk edges="beg end"/>
    </person>
    <person depart="0.000000" id="p53" departPos="-10.000000">
        <walk edges="beg end"/>
    </person>
    <person depart="0.000000" id="p54" departPos="-10.000000">
        <walk edges="beg end"/>
    </person>
    <person depart="0.000000" id="p55" departPos="-10.000000">
        <walk edges="beg end"/>
    </person>
    <person depart="0.000000" id="p56" departPos="-10.000000">
        <walk edges="beg end"/>
    </person>
    <person depart="0.000000" id="p57" departPos="-10.000000">
        <walk edges="beg end"/>
    </person>
    <person depart="0.000000" id="p58" departPos="-10.000000">
        <walk edges="beg end"/>
    </person>
    <person depart="0.000000" id="p59" departPos="-10.000000">
        <walk edges="beg end"/>
    </person>
    <person depart="0.000000" id="p60" departPos="-10.000000">
        <walk edges="beg end"/>
    </person>
    <person depart="0.000000" id="p61" departPos="-10.000000">
        <walk edges="beg end"/>
    </person>
    <person depart="0.000000" id="p62" departPos="-10.000000">
        <walk edges="beg end"/>
    </person>
    <person depart="0.000000" id="p63" departPos="-10.000000">
        <walk edges="beg end"/>
    </person>
    <person depart="0.000000" id="p64" departPos="-10.000000">
        <walk edges="beg end"/>
    </person>
    <person depart="0.000000" id="p65" departPos="-10.000000">
        <walk edges="beg end"/>
    </person>
    <person depart="0.000000" id="p66" departPos="-10.000000">
        <walk edges="beg end"/>
    </person>
    <person depart="0.000000" id="p67" departPos="-10.000000">
        <walk edges="beg end"/>
    </person>
    <person depart="0.000000" id="p68" departPos="-10.000000">
        <walk edges="beg end"/>
    </person>
    <person depart="0.000000" id="p69" departPos="-10.000000">
        <walk edges="beg end"/>
    </person>
    <person depart="0.000000" id="p70" departPos="-10.000000">
        <walk edges="beg end"/>
    </person>
    <person depart="0.000000" id="p71" departPos="-10.000000">
        <walk edges="beg end"/>
    </person>
    <person depart="0.000000" id="p72" departPos="-10.000000">
        <walk edges="beg end"/>
    </person>
    <person depart="0.000000" id="p73" departPos="-10.000000">
        <walk edges="beg end"/>
    </person>
    <person depart="0.000000" id="p74" departPos="-10.000000">
        <walk edges="beg end"/>
    </person>
    <person depart="0.000000" id="p75" departPos="-10.000000">
        <walk edges="beg end"/>
    </person>
    <person depart="0.000000" id="p76" departPos="-10.000000">
        <walk edges="beg end"/>
    </person>
    <person depart="0.000000" id="p77" departPos="-10.000000">
        <walk edges="beg end"/>
    </person>
    <person depart="0.000000" id="p78" departPos="-10.000000">
        <walk edges="beg end"/>
    </person>
    <person depart="0.000000" id="p79" departPos="-10.000000">
        <walk edges="beg end"/>
    </person>
    <person depart="0.000000" id="p80" departPos="-10.000000">
        <walk edges="beg end"/>
    </person>
    <person depart="0.000000" id="p81" departPos="-10.000000">
        <walk edges="beg end"/>
    </person>
    <person depart="0.000000" id="p82" departPos="-10.000000">
        <walk edges="beg end"/>
    </person>
    <person depart="0.000000" id="p83" departPos="-10.000000">
        <walk edges="beg end"/>
    </person>
    <person depart="0.000000" id="p84" departPos="-10.000000">
        <walk edges="beg end"/>
    </person>
    <person depart="0.000000" id="p85" departPos="-10.000000">
        <walk edges="beg end"/>
    </person>
    <person depart="0.000000" id="p86" departPos="-10.000000">
        <walk edges="beg end"/>
    </person>
    <person depart="0.000000" id="p87" departPos="-10.000000">
        <walk edges="beg end"/>
    </person>
    <person depart="0.000000" id="p88" departPos="-10.000000">
        <walk edges="beg end"/>
    </person>
    <person depart="0.000000" id="p89" departPos="-10.000000">
        <walk edges="beg end"/>
    </person>
    <person depart="0.000000" id="p90" departPos="-10.000000">
        <walk edges="beg end"/>
    </person>
    <person depart="0.000000" id="p91" departPos="-10.000000">
        <walk edges="beg end"/>
    </person>
    <person depart="0.000000" id="p92" departPos="-10.000000">
        <walk edges="beg end"/>
    </person>
    <person depart="0.000000" id="p93" departPos="-10.000000">
        <walk edges="beg end"/>
    </person>
    <person depart="0.000000" id="p94" departPos="-10.000000">
        <walk edges="beg end"/>
    </person>
    <person depart="0.000000" id="p95" departPos="-10.000000">
        <walk edges="beg end"/>
    </person>
    <person depart="0.000000" id="p96" departPos="-10.000000">
        <walk edges="beg end"/>
    </person>
    <person depart="0.000000" id="p97" departPos="-10.000000">
        <walk edges="beg end"/>
    </person>
    <person depart="0.000000" id="p98" departPos="-10.000000">
        <walk edges="beg end"/>
    </person>
    <person depart="0.000000" id="p99" departPos="-10.000000">
        <walk edges="beg end"/>
    </person>
    <person depart="0.000000" id="p100" departPos="-10.000000">
        <walk edges="beg end"/>
    </person>
    <person depart="0.000000" id="p101" departPos="-10.000000">
        <walk edges="beg end"/>
    </person>
    <person depart="0.000000" id="p102" departPos="-10.000000">
        <walk edges="beg end"/>
    </person>
    <person depart="0.000000" id="p103" departPos="-10.000000">
        <walk edges="beg end"/>
    </person>
    <person depart="0.000000" id="p104" departPos="-10.000000">
        <walk edges="beg end"/>
    </person>
    <person depart="0.000000" id="p105" departPos="-10.000000">
        <walk edges="beg end"/>
    </person>
    <person depart="0.000000" id="p106" departPos="-10.000000">
        <walk edges="beg end"/>
    </person>
    <person depart="0.000000" id="p107" departPos="-10.000000">
        <walk edges="beg end"/>
    </person>
    <person depart="0.000000" id="p108" departPos="-10.000000">
        <walk edges="beg end"/>
    </person>
    <person depart="0.000000" id="p109" departPos="-10.000000">
        <walk edges="beg end"/>
    </person>
    <person depart="0.000000" id="p110" departPos="-10.000000">
        <walk edges="beg end"/>
    </person>
    <person depart="0.000000" id="p111" departPos="-10.000000">
        <walk edges="beg end"/>
    </person>
    <person depart="0.000000" id="p112" departPos="-10.000000">
        <walk edges="beg end"/>
    </person>
    <person depart="0.000000" id="p113" departPos="-10.000000">
        <walk edges="beg end"/>
    </person>
    <person depart="0.000000" id="p114" departPos="-10.000000">
        <walk edges="beg end"/>
    </person>
    <person depart="0.000000" id="p115" departPos="-10.000000">
        <walk edges="beg end"/>
    </person>
    <person depart="0.000000" id="p116" departPos="-10.000000">
        <walk edges="beg end"/>
    </person>
    <person depart="0.000000" id="p117" departPos="-10.000000">
        <walk edges="beg end"/>
    </person>
    <person depart="0.000000" id="p118" departPos="-10.000000">
        <walk edges="beg end"/>
    </person>
    <person depart="0.000000" id="p119" departPos="-10.000000">
        <walk edges="beg end"/>
    </person>
    <person depart="0.000000" id="p120" departPos="-10.000000">
        <walk edges="beg end"/>
    </person>
    <person depart="0.000000" id="p121" departPos="-10.000000">
        <walk edges="beg end"/>
    </person>
    <person depart="0.000000" id="p122" departPos="-10.000000">
        <walk edges="beg end"/>
    </person>
    <person depart="0.000000" id="p123" departPos="-10.000000">
        <walk edges="beg end"/>
    </person>
    <person depart="0.000000" id="p124" departPos="-10.000000">
        <walk edges="beg end"/>
    </person>
    <person depart="0.000000" id="p125" departPos="-10.000000">
        <walk edges="beg end"/>
    </person>
    <person depart="0.000000" id="p126" departPos="-10.000000">
        <walk edges="beg end"/>
    </person>
    <person depart="0.000000" id="p127" departPos="-10.000000">
        <walk edges="beg end"/>
    </person>
    <person depart="0.000000" id="p128" departPos="-10.000000">
        <walk edges="beg end"/>
    </person>
    <person depart="0.000000" id="p129" departPos="-10.000000">
        <walk edges="beg end"/>
    </person>
    <person depart="0.000000" id="p130" departPos="-10.000000">
        <walk edges="beg end"/>
    </person>
    <person depart="0.000000" id="p131" departPos="-10.000000">
        <walk edges="beg end"/>
    </person>
    <person depart="0.000000" id="p132" departPos="-10.000000">
        <walk edges="beg end"/>
    </person>
    <person depart="0.000000" id="p133" departPos="-10.000000">
        <walk edges="beg end"/>
    </person>
    <person depart="0.000000" id="p134" departPos="-10.000000">
        <walk edges="beg end"/>
    </person>
    <person depart="0.000000" id="p135" departPos="-10.000000">
        <walk edges="beg end"/>
    </person>
    <person depart="0.000000" id="p136" departPos="-10.000000">
        <walk edges="beg end"/>
    </person>
    <person depart="0.000000" id="p137" departPos="-10.000000">
        <walk edges="beg end"/>
    </person>
    <person depart="0.000000" id="p138" departPos="-10.000000">
        <walk edges="beg end"/>
    </person>
    <person depart="0.000000" id="p139" departPos="-10.000000">
        <walk edges="beg end"/>
    </person>
    <person depart="0.000000" id="p140" departPos="-10.000000">
        <walk edges="beg end"/>
    </person>
    <person depart="0.000000" id="p141" departPos="-10.000000">
        <walk edges="beg end"/>
    </person>
    <person depart="0.000000" id="p142" departPos="-10.000000">
        <walk edges="beg end"/>
    </person>
    <person depart="0.000000" id="p143" departPos="-10.000000">
        <walk edges="beg end"/>
    </person>
    <person depart="0.000000" id="p144" departPos="-10.000000">
        <walk edges="beg end"/>
    </person>
    <person depart="0.000000" id="p145" departPos="-10.000000">
        <walk edges="beg end"/>
    </person>
    <person depart="0.000000" id="p146" departPos="-10.000000">
        <walk edges="beg end"/>
    </person>
    <person depart="0.000000" id="p147" departPos="-10.000000">
        <walk edges="beg end"/>
    </person>
    <person depart="0.000000" id="p148" departPos="-10.000000">
        <walk edges="beg end"/>
    </person>
    <person depart="0.000000" id="p149" departPos="-10.000000">
        <walk edges="beg end"/>
    </person>
    <person depart="0.000000" id="p150" departPos="-10.000000">
        <walk edges="beg end"/>
    </person>
    <person depart="0.000000" id="p151" departPos="-10.000000">
        <walk edges="beg end"/>
    </person>
    <person depart="0.000000" id="p152" departPos="-10.000000">
        <walk edges="beg end"/>
    </person>
    <person depart="0.000000" id="p153" departPos="-10.000000">
        <walk edges="beg end"/>
    </person>
    <person depart="0.000000" id="p154" departPos="-10.000000">
        <walk edges="beg end"/>
    </person>
    <person depart="0.000000" id="p155" departPos="-10.000000">
        <walk edges="beg end"/>
    </person>
    <person depart="0.000000" id="p156" departPos="-10.000000">
        <walk edges="beg end"/>
    </person>
    <person depart="0.000000" id="p157" departPos="-10.000000">
        <walk edges="beg end"/>
    </person>
    <person depart="0.000000" id="p158" departPos="-10.000000">
        <walk edges="beg end"/>
    </person>
    <person depart="0.000000" id="p159" departPos="-10.000000">
        <walk edges="beg end"/>
    </person>
    <person depart="0.000000" id="p160" departPos="-10.000000">
        <walk edges="beg end"/>
    </person>
    <person depart="0.000000" id="p161" departPos="-10.000000">
        <walk edges="beg end"/>
    </person>
    <person depart="0.000000" id="p162" departPos="-10.000000">
        <walk edges="beg end"/>
    </person>
    <person depart="0.000000" id="p163" departPos="-10.000000">
        <walk edges="beg end"/>
    </person>
    <person depart="0.000000" id="p164" departPos="-10.000000">
        <walk edges="beg end"/>
    </person>
    <person depart="0.000000" id="p165" departPos="-10.000000">
        <walk edges="beg end"/>
    </person>
    <person depart="0.000000" id="p166" departPos="-10.000000">
        <walk edges="beg end"/>
    </person>
    <person depart="0.000000" id="p167" departPos="-10.000000">
        <walk edges="beg end"/>
    </person>
    <person depart="0.000000" id="p168" departPos="-10.000000">
        <walk edges="beg end"/>
    </person>
    <person depart="0.000000" id="p169" departPos="-10.000000">
        <walk edges="beg end"/>
    </person>
    <person depart="0.000000" id="p170" departPos="-10.000000">
        <walk edges="beg end"/>
    </person>
    <person depart="0.000000" id="p171" departPos="-10.000000">
        <walk edges="beg end"/>
    </person>
    <person depart="0.000000" id="p172" departPos="-10.000000">
        <walk edges="beg end"/>
    </person>
    <person depart="0.000000" id="p173" departPos="-10.000000">
        <walk edges="beg end"/>
    </person>
    <person depart="0.000000" id="p174" departPos="-10.000000">
        <walk edges="beg end"/>
    </person>
    <person depart="0.000000" id="p175" departPos="-10.000000">
        <walk edges="beg end"/>
    </person>
    <person depart="0.000000" id="p176" departPos="-10.000000">
        <walk edges="beg end"/>
    </person>
    <person depart="0.000000" id="p177" departPos="-10.000000">
        <walk edges="beg end"/>
    </person>
    <person depart="0.000000" id="p178" departPos="-10.000000">
        <walk edges="beg end"/>
    </person>
    <person depart="0.000000" id="p179" departPos="-10.000000">
        <walk edges="beg end"/>
    </person>
    <person depart="0.000000" id="p180" departPos="-10.000000">
        <walk edges="beg end"/>
    </person>
    <person depart="0.000000" id="p181" departPos="-10.000000">
        <walk edges="beg end"/>
    </person>
    <person depart="0.000000" id="p182" departPos="-10.000000">
        <walk edges="beg end"/>
    </person>
    <person depart="0.000000" id="p183" departPos="-10.000000">
        <walk edges="beg end"/>
    </person>
    <person depart="0.000000" id="p184" departPos="-10.000000">
        <walk edges="beg end"/>
    </person>
    <person depart="0.000000" id="p185" departPos="-10.000000">
        <walk edges="beg end"/>
    </person>
    <person depart="0.000000" id="p186" departPos="-10.000000">
        <walk edges="beg end"/>
    </person>
    <person depart="0.000000" id="p187" departPos="-10.000000">
        <walk edges="beg end"/>
    </person>
    <person depart="0.000000" id="p188" departPos="-10.000000">
        <walk edges="beg end"/>
    </person>
    <person depart="0.000000" id="p189" departPos="-10.000000">
        <walk edges="beg end"/>
    </person>
    <person depart="0.000000" id="p190" departPos="-10.000000">
        <walk edges="beg end"/>
    </person>
    <person depart="0.000000" id="p191" departPos="-10.000000">
        <walk edges="beg end"/>
    </person>
    <person depart="0.000000" id="p192" departPos="-10.000000">
        <walk edges="beg end"/>
    </person>
    <person depart="0.000000" id="p193" departPos="-10.000000">
        <walk edges="beg end"/>
    </person>
    <person depart="0.000000" id="p194" departPos="-10.000000">
        <walk edges="beg end"/>
    </person>
    <person depart="0.000000" id="p195" departPos="-10.000000">
        <walk edges="beg end"/>
    </person>
    <person depart="0.000000" id="p196" departPos="-10.000000">
        <walk edges="beg end"/>
    </person>
    <person depart="0.000000" id="p197" departPos="-10.000000">
        <walk edges="beg end"/>
    </person>
    <person depart="0.000000" id="p198" departPos="-10.000000">
        <walk edges="beg end"/>
    </person>
    <person depart="0.000000" id="p199" departPos="-10.000000">
        <walk edges="beg end"/>
    </person>
    <person depart="0.000000" id="p200" departPos="-10.000000">
        <walk edges="beg end"/>
    </person>
    <person depart="0.000000" id="p201" departPos="-10.000000">
        <walk edges="beg end"/>
    </person>
    <person depart="0.000000" id="p202" departPos="-10.000000">
        <walk edges="beg end"/>
    </person>
    <person depart="0.000000" id="p203" departPos="-10.000000">
        <walk edges="beg end"/>
    </person>
    <person depart="0.000000" id="p204" departPos="-10.000000">
        <walk edges="beg end"/>
    </person>
    <person depart="0.000000" id="p205" departPos="-10.000000">
        <walk edges="beg end"/>
    </person>
    <person depart="0.000000" id="p206" departPos="-10.000000">
        <walk edges="beg end"/>
    </person>
    <person depart="0.000000" id="p207" departPos="-10.000000">
        <walk edges="beg end"/>
    </person>
    <person depart="0.000000" id="p208" departPos="-10.000000">
        <walk edges="beg end"/>
    </person>
    <person depart="0.000000" id="p209" departPos="-10.000000">
        <walk edges="beg end"/>
    </person>
    <person depart="0.000000" id="p210" departPos="-10.000000">
        <walk edges="beg end"/>
    </person>
    <person depart="0.000000" id="p211" departPos="-10.000000">
        <walk edges="beg end"/>
    </person>
    <person depart="0.000000" id="p212" departPos="-10.000000">
        <walk edges="beg end"/>
    </person>
    <person depart="0.000000" id="p213" departPos="-10.000000">
        <walk edges="beg end"/>
    </person>
    <person depart="0.000000" id="p214" departPos="-10.000000">
        <walk edges="beg end"/>
    </person>
    <person depart="0.000000" id="p215" departPos="-10.000000">
        <walk edges="beg end"/>
    </person>
    <person depart="0.000000" id="p216" departPos="-10.000000">
        <walk edges="beg end"/>
    </person>
    <person depart="0.000000" id="p217" departPos="-10.000000">
        <walk edges="beg end"/>
    </person>
    <person depart="0.000000" id="p218" departPos="-10.000000">
        <walk edges="beg end"/>
    </person>
    <person depart="0.000000" id="p219" departPos="-10.000000">
        <walk edges="beg end"/>
    </person>
    <person depart="0.000000" id="p220" departPos="-10.000000">
        <walk edges="beg end"/>
    </person>
    <person depart="0.000000" id="p221" departPos="-10.000000">
        <walk edges="beg end"/>
    </person>
    <person depart="0.000000" id="p222" departPos="-10.000000">
        <walk edges="beg end"/>
    </person>
    <person depart="0.000000" id="p223" departPos="-10.000000">
        <walk edges="beg end"/>
    </person>
    <person depart="0.000000" id="p224" departPos="-10.000000">
        <walk edges="beg end"/>
    </person>
    <person depart="0.000000" id="p225" departPos="-10.000000">
        <walk edges="beg end"/>
    </person>
    <person depart="0.000000" id="p226" departPos="-10.000000">
        <walk edges="beg end"/>
    </person>
    <person depart="0.000000" id="p227" departPos="-10.000000">
        <walk edges="beg end"/>
    </person>
    <person depart="0.000000" id="p228" departPos="-10.000000">
        <walk edges="beg end"/>
    </person>
    <person depart="0.000000" id="p229" departPos="-10.000000">
        <walk edges="beg end"/>
    </person>
    <person depart="0.000000" id="p230" departPos="-10.000000">
        <walk edges="beg end"/>
    </person>
    <person depart="0.000000" id="p231" departPos="-10.000000">
        <walk edges="beg end"/>
    </person>
    <person depart="0.000000" id="p232" departPos="-10.000000">
        <walk edges="beg end"/>
    </person>
    <person depart="0.000000" id="p233" departPos="-10.000000">
        <walk edges="beg end"/>
    </person>
    <person depart="0.000000" id="p234" departPos="-10.000000">
        <walk edges="beg end"/>
    </person>
    <person depart="0.000000" id="p235" departPos="-10.000000">
        <walk edges="beg end"/>
    </person>
    <person depart="0.000000" id="p236" departPos="-10.000000">
        <walk edges="beg end"/>
    </person>
    <person depart="0.000000" id="p237" departPos="-10.000000">
        <walk edges="beg end"/>
    </person>
    <person depart="0.000000" id="p238" departPos="-10.000000">
        <walk edges="beg end"/>
    </person>
    <person depart="0.000000" id="p239" departPos="-10.000000">
        <walk edges="beg end"/>
    </person>
    <person depart="0.000000" id="p240" departPos="-10.000000">
        <walk edges="beg end"/>
    </person>
    <person depart="0.000000" id="p241" departPos="-10.000000">
        <walk edges="beg end"/>
    </person>
    <person depart="0.000000" id="p242" departPos="-10.000000">
        <walk edges="beg end"/>
    </person>
    <person depart="0.000000" id="p243" departPos="-10.000000">
        <walk edges="beg end"/>
    </person>
    <person depart="0.000000" id="p244" departPos="-10.000000">
        <walk edges="beg end"/>
    </person>
    <person depart="0.000000" id="p245" departPos="-10.000000">
        <walk edges="beg end"/>
    </person>
    <person depart="0.000000" id="p246" departPos="-10.000000">
        <walk edges="beg end"/>
    </person>
    <person depart="0.000000" id="p247" departPos="-10.000000">
        <walk edges="beg end"/>
    </person>
    <person depart="0.000000" id="p248" departPos="-10.000000">
        <walk edges="beg end"/>
    </person>
    <person depart="0.000000" id="p249" departPos="-10.000000">
        <walk edges="beg end"/>
    </person>
    <person depart="0.000000" id="p250" departPos="-10.000000">
        <walk edges="beg end"/>
    </person>
    <person depart="0.000000" id="p251" departPos="-10.000000">
        <walk edges="beg end"/>
    </person>
    <person depart="0.000000" id="p252" departPos="-10.000000">
        <walk edges="beg end"/>
    </person>
    <person depart="0.000000" id="p253" departPos="-10.000000">
        <walk edges="beg end"/>
    </person>
    <person depart="0.000000" id="p254" departPos="-10.000000">
        <walk edges="beg end"/>
    </person>
    <person depart="0.000000" id="p255" departPos="-10.000000">
        <walk edges="beg end"/>
    </person>
    <person depart="0.000000" id="p256" departPos="-10.000000">
        <walk edges="beg end"/>
    </person>
    <person depart="0.000000" id="p257" departPos="-10.000000">
        <walk edges="beg end"/>
    </person>
    <person depart="0.000000" id="p258" departPos="-10.000000">
        <walk edges="beg end"/>
    </person>
    <person depart="0.000000" id="p259" departPos="-10.000000">
        <walk edges="beg end"/>
    </person>
    <person depart="0.000000" id="p260" departPos="-10.000000">
        <walk edges="beg end"/>
    </person>
    <person depart="0.000000" id="p261" departPos="-10.000000">
        <walk edges="beg end"/>
    </person>
    <person depart="0.000000" id="p262" departPos="-10.000000">
        <walk edges="beg end"/>
    </person>
    <person depart="0.000000" id="p263" departPos="-10.000000">
        <walk edges="beg end"/>
    </person>
    <person depart="0.000000" id="p264" departPos="-10.000000">
        <walk edges="beg end"/>
    </person>
    <person depart="0.000000" id="p265" departPos="-10.000000">
        <walk edges="beg end"/>
    </person>
    <person depart="0.000000" id="p266" departPos="-10.000000">
        <walk edges="beg end"/>
    </person>
    <person depart="0.000000" id="p267" departPos="-10.000000">
        <walk edges="beg end"/>
    </person>
    <person depart="0.000000" id="p268" departPos="-10.000000">
        <walk edges="beg end"/>
    </person>
    <person depart="0.000000" id="p269" departPos="-10.000000">
        <walk edges="beg end"/>
    </person>
    <person depart="0.000000" id="p270" departPos="-10.000000">
        <walk edges="beg end"/>
    </person>
    <person depart="0.000000" id="p271" departPos="-10.000000">
        <walk edges="beg end"/>
    </person>
    <person depart="0.000000" id="p272" departPos="-10.000000">
        <walk edges="beg end"/>
    </person>
    <person depart="0.000000" id="p273" departPos="-10.000000">